{
  "completed_at": "20201109T233059Z",
  "completed_status": "Success",
  "created_at": "2020-11-09 23:25:34 +0000",
  "current_step": 3,
  "description": "Autogenerated 1",
  "eplusout_err": "Program Version,EnergyPlus, Version 9.4.0-998c4b761e, YMD=2020.11.09 23:26,\n   ************* Beginning Zone Sizing Calculations\n   ** Warning ** ProcessScheduleInput: Schedule:Day:Interval=\"ECONOMIZER MAX OA FRACTION 70 PCT DEFAULT\", Blank Schedule Type Limits Name input -- will not be validated.\n   ** Warning ** ProcessScheduleInput: Schedule:Constant=\"ALWAYS OFF DISCRETE\", Blank Schedule Type Limits Name input -- will not be validated.\n   ** Warning ** ProcessScheduleInput: Schedule:Constant=\"ALWAYS ON CONTINUOUS\", Blank Schedule Type Limits Name input -- will not be validated.\n   ** Warning ** GetHTSurfaceData: Surfaces with interface to Ground found but no \"Ground Temperatures\" were input.\n   **   ~~~   ** Found first in surface=BASEMENT_FLOOR\n   **   ~~~   ** Defaults, constant throughout the year of (18.0) will be used.\n   ** Warning ** CheckUsedConstructions: There are 9 nominally unused constructions in input.\n   **   ~~~   ** For explicit details on each unused construction, use Output:Diagnostics,DisplayExtraWarnings;\n   ** Warning ** GetInternalHeatGains: People=\"OFFICE WHOLEBUILDING - LG OFFICE PEOPLE\" has comfort related schedules but no thermal comfort model selected.\n   **   ~~~   ** If schedules are specified for air velocity, clothing insulation, and/or work efficiency but no thermal comfort\n   **   ~~~   ** thermal comfort model is selected, the schedules will be listed as unused schedules in the .err file.\n   **   ~~~   ** To avoid these errors, select a valid thermal comfort model or eliminate these schedules in the PEOPLE input.\n   ** Warning ** GetInternalHeatGains: People=\"OFFICE WHOLEBUILDING - LG OFFICE PEOPLE\" has comfort related schedules but no thermal comfort model selected.\n   **   ~~~   ** If schedules are specified for air velocity, clothing insulation, and/or work efficiency but no thermal comfort\n   **   ~~~   ** thermal comfort model is selected, the schedules will be listed as unused schedules in the .err file.\n   **   ~~~   ** To avoid these errors, select a valid thermal comfort model or eliminate these schedules in the PEOPLE input.\n   ** Warning ** GetInternalHeatGains: People=\"OFFICE WHOLEBUILDING - LG OFFICE PEOPLE\" has comfort related schedules but no thermal comfort model selected.\n   **   ~~~   ** If schedules are specified for air velocity, clothing insulation, and/or work efficiency but no thermal comfort\n   **   ~~~   ** thermal comfort model is selected, the schedules will be listed as unused schedules in the .err file.\n   **   ~~~   ** To avoid these errors, select a valid thermal comfort model or eliminate these schedules in the PEOPLE input.\n   ** Warning ** GetInternalHeatGains: People=\"OFFICE WHOLEBUILDING - LG OFFICE PEOPLE\" has comfort related schedules but no thermal comfort model selected.\n   **   ~~~   ** If schedules are specified for air velocity, clothing insulation, and/or work efficiency but no thermal comfort\n   **   ~~~   ** thermal comfort model is selected, the schedules will be listed as unused schedules in the .err file.\n   **   ~~~   ** To avoid these errors, select a valid thermal comfort model or eliminate these schedules in the PEOPLE input.\n   ** Warning ** GetInternalHeatGains: People=\"OFFICE WHOLEBUILDING - LG OFFICE PEOPLE\" has comfort related schedules but no thermal comfort model selected.\n   **   ~~~   ** If schedules are specified for air velocity, clothing insulation, and/or work efficiency but no thermal comfort\n   **   ~~~   ** thermal comfort model is selected, the schedules will be listed as unused schedules in the .err file.\n   **   ~~~   ** To avoid these errors, select a valid thermal comfort model or eliminate these schedules in the PEOPLE input.\n   ** Warning ** GetInternalHeatGains: People=\"OFFICE WHOLEBUILDING - LG OFFICE PEOPLE\" has comfort related schedules but no thermal comfort model selected.\n   **   ~~~   ** If schedules are specified for air velocity, clothing insulation, and/or work efficiency but no thermal comfort\n   **   ~~~   ** thermal comfort model is selected, the schedules will be listed as unused schedules in the .err file.\n   **   ~~~   ** To avoid these errors, select a valid thermal comfort model or eliminate these schedules in the PEOPLE input.\n   ** Warning ** GetInternalHeatGains: People=\"OFFICE WHOLEBUILDING - LG OFFICE PEOPLE\" has comfort related schedules but no thermal comfort model selected.\n   **   ~~~   ** If schedules are specified for air velocity, clothing insulation, and/or work efficiency but no thermal comfort\n   **   ~~~   ** thermal comfort model is selected, the schedules will be listed as unused schedules in the .err file.\n   **   ~~~   ** To avoid these errors, select a valid thermal comfort model or eliminate these schedules in the PEOPLE input.\n   ** Warning ** GetInternalHeatGains: People=\"OFFICE WHOLEBUILDING - LG OFFICE PEOPLE\" has comfort related schedules but no thermal comfort model selected.\n   **   ~~~   ** If schedules are specified for air velocity, clothing insulation, and/or work efficiency but no thermal comfort\n   **   ~~~   ** thermal comfort model is selected, the schedules will be listed as unused schedules in the .err file.\n   **   ~~~   ** To avoid these errors, select a valid thermal comfort model or eliminate these schedules in the PEOPLE input.\n   ** Warning ** GetInternalHeatGains: People=\"OFFICE WHOLEBUILDING - LG OFFICE PEOPLE\" has comfort related schedules but no thermal comfort model selected.\n   **   ~~~   ** If schedules are specified for air velocity, clothing insulation, and/or work efficiency but no thermal comfort\n   **   ~~~   ** thermal comfort model is selected, the schedules will be listed as unused schedules in the .err file.\n   **   ~~~   ** To avoid these errors, select a valid thermal comfort model or eliminate these schedules in the PEOPLE input.\n   ** Warning ** GetInternalHeatGains: People=\"OFFICE WHOLEBUILDING - LG OFFICE PEOPLE\" has comfort related schedules but no thermal comfort model selected.\n   **   ~~~   ** If schedules are specified for air velocity, clothing insulation, and/or work efficiency but no thermal comfort\n   **   ~~~   ** thermal comfort model is selected, the schedules will be listed as unused schedules in the .err file.\n   **   ~~~   ** To avoid these errors, select a valid thermal comfort model or eliminate these schedules in the PEOPLE input.\n   ** Warning ** GetInternalHeatGains: People=\"OFFICE WHOLEBUILDING - LG OFFICE PEOPLE\" has comfort related schedules but no thermal comfort model selected.\n   **   ~~~   ** If schedules are specified for air velocity, clothing insulation, and/or work efficiency but no thermal comfort\n   **   ~~~   ** thermal comfort model is selected, the schedules will be listed as unused schedules in the .err file.\n   **   ~~~   ** To avoid these errors, select a valid thermal comfort model or eliminate these schedules in the PEOPLE input.\n   ** Warning ** GetInternalHeatGains: People=\"OFFICE WHOLEBUILDING - LG OFFICE PEOPLE\" has comfort related schedules but no thermal comfort model selected.\n   **   ~~~   ** If schedules are specified for air velocity, clothing insulation, and/or work efficiency but no thermal comfort\n   **   ~~~   ** thermal comfort model is selected, the schedules will be listed as unused schedules in the .err file.\n   **   ~~~   ** To avoid these errors, select a valid thermal comfort model or eliminate these schedules in the PEOPLE input.\n   ** Warning ** GetInternalHeatGains: People=\"OFFICE WHOLEBUILDING - LG OFFICE PEOPLE\" has comfort related schedules but no thermal comfort model selected.\n   **   ~~~   ** If schedules are specified for air velocity, clothing insulation, and/or work efficiency but no thermal comfort\n   **   ~~~   ** thermal comfort model is selected, the schedules will be listed as unused schedules in the .err file.\n   **   ~~~   ** To avoid these errors, select a valid thermal comfort model or eliminate these schedules in the PEOPLE input.\n   ** Warning ** GetInternalHeatGains: People=\"OFFICE WHOLEBUILDING - LG OFFICE PEOPLE\" has comfort related schedules but no thermal comfort model selected.\n   **   ~~~   ** If schedules are specified for air velocity, clothing insulation, and/or work efficiency but no thermal comfort\n   **   ~~~   ** thermal comfort model is selected, the schedules will be listed as unused schedules in the .err file.\n   **   ~~~   ** To avoid these errors, select a valid thermal comfort model or eliminate these schedules in the PEOPLE input.\n   ** Warning ** GetInternalHeatGains: People=\"OFFICE WHOLEBUILDING - LG OFFICE PEOPLE\" has comfort related schedules but no thermal comfort model selected.\n   **   ~~~   ** If schedules are specified for air velocity, clothing insulation, and/or work efficiency but no thermal comfort\n   **   ~~~   ** thermal comfort model is selected, the schedules will be listed as unused schedules in the .err file.\n   **   ~~~   ** To avoid these errors, select a valid thermal comfort model or eliminate these schedules in the PEOPLE input.\n   ** Warning ** GetInternalHeatGains: People=\"OFFICE WHOLEBUILDING - LG OFFICE PEOPLE\" has comfort related schedules but no thermal comfort model selected.\n   **   ~~~   ** If schedules are specified for air velocity, clothing insulation, and/or work efficiency but no thermal comfort\n   **   ~~~   ** thermal comfort model is selected, the schedules will be listed as unused schedules in the .err file.\n   **   ~~~   ** To avoid these errors, select a valid thermal comfort model or eliminate these schedules in the PEOPLE input.\n   ** Warning ** Seems like you already tried to get a Handle on this Actuator 1times.\n   **   ~~~   ** Occurred for componentType='SCHEDULE:YEAR', controlType='SCHEDULE VALUE', uniqueKey='OFFICELARGE CLGSETP_SCH_NO_SETBACK'.\n   **   ~~~   ** You should take note that there is a risk of overwritting.\n   ** Warning ** Seems like you already tried to get a Handle on this Actuator 1times.\n   **   ~~~   ** Occurred for componentType='SCHEDULE:YEAR', controlType='SCHEDULE VALUE', uniqueKey='OFFICELARGE HTGSETP_SCH_YES_OPTIMUM'.\n   **   ~~~   ** You should take note that there is a risk of overwritting.\n   ** Warning ** Seems like you already tried to get a Handle on this Actuator 2times.\n   **   ~~~   ** Occurred for componentType='SCHEDULE:YEAR', controlType='SCHEDULE VALUE', uniqueKey='OFFICELARGE CLGSETP_SCH_NO_SETBACK'.\n   **   ~~~   ** You should take note that there is a risk of overwritting.\n   ** Warning ** Seems like you already tried to get a Handle on this Actuator 2times.\n   **   ~~~   ** Occurred for componentType='SCHEDULE:YEAR', controlType='SCHEDULE VALUE', uniqueKey='OFFICELARGE HTGSETP_SCH_YES_OPTIMUM'.\n   **   ~~~   ** You should take note that there is a risk of overwritting.\n   ** Warning ** GetDaylightingControls: Fraction of Zone controlled by the Daylighting reference points is < 1.0.\n   **   ~~~   ** ..discovered in \"Daylighting:Controls\" for Zone=\"PERIMETER_BOT_ZN_1 ZN\", only 0.560 of the zone is controlled.\n   ** Warning ** GetDaylightingControls: Fraction of Zone controlled by the Daylighting reference points is < 1.0.\n   **   ~~~   ** ..discovered in \"Daylighting:Controls\" for Zone=\"PERIMETER_BOT_ZN_2 ZN\", only 0.570 of the zone is controlled.\n   ** Warning ** GetDaylightingControls: Fraction of Zone controlled by the Daylighting reference points is < 1.0.\n   **   ~~~   ** ..discovered in \"Daylighting:Controls\" for Zone=\"PERIMETER_BOT_ZN_3 ZN\", only 0.560 of the zone is controlled.\n   ** Warning ** GetDaylightingControls: Fraction of Zone controlled by the Daylighting reference points is < 1.0.\n   **   ~~~   ** ..discovered in \"Daylighting:Controls\" for Zone=\"PERIMETER_BOT_ZN_4 ZN\", only 0.570 of the zone is controlled.\n   ** Warning ** GetDaylightingControls: Fraction of Zone controlled by the Daylighting reference points is < 1.0.\n   **   ~~~   ** ..discovered in \"Daylighting:Controls\" for Zone=\"PERIMETER_MID_ZN_1 ZN\", only 0.560 of the zone is controlled.\n   ** Warning ** GetDaylightingControls: Fraction of Zone controlled by the Daylighting reference points is < 1.0.\n   **   ~~~   ** ..discovered in \"Daylighting:Controls\" for Zone=\"PERIMETER_MID_ZN_2 ZN\", only 0.570 of the zone is controlled.\n   ** Warning ** GetDaylightingControls: Fraction of Zone controlled by the Daylighting reference points is < 1.0.\n   **   ~~~   ** ..discovered in \"Daylighting:Controls\" for Zone=\"PERIMETER_MID_ZN_3 ZN\", only 0.560 of the zone is controlled.\n   ** Warning ** GetDaylightingControls: Fraction of Zone controlled by the Daylighting reference points is < 1.0.\n   **   ~~~   ** ..discovered in \"Daylighting:Controls\" for Zone=\"PERIMETER_MID_ZN_4 ZN\", only 0.570 of the zone is controlled.\n   ** Warning ** GetDaylightingControls: Fraction of Zone controlled by the Daylighting reference points is < 1.0.\n   **   ~~~   ** ..discovered in \"Daylighting:Controls\" for Zone=\"PERIMETER_TOP_ZN_1 ZN\", only 0.560 of the zone is controlled.\n   ** Warning ** GetDaylightingControls: Fraction of Zone controlled by the Daylighting reference points is < 1.0.\n   **   ~~~   ** ..discovered in \"Daylighting:Controls\" for Zone=\"PERIMETER_TOP_ZN_2 ZN\", only 0.570 of the zone is controlled.\n   ** Warning ** GetDaylightingControls: Fraction of Zone controlled by the Daylighting reference points is < 1.0.\n   **   ~~~   ** ..discovered in \"Daylighting:Controls\" for Zone=\"PERIMETER_TOP_ZN_3 ZN\", only 0.560 of the zone is controlled.\n   ** Warning ** GetDaylightingControls: Fraction of Zone controlled by the Daylighting reference points is < 1.0.\n   **   ~~~   ** ..discovered in \"Daylighting:Controls\" for Zone=\"PERIMETER_TOP_ZN_4 ZN\", only 0.570 of the zone is controlled.\n   ** Warning ** GeometryTransformForDaylighting: Reference point X Value outside Zone Min/Max X, Zone=PERIMETER_BOT_ZN_2 ZN\n   **   ~~~   ** ...X Reference Point= 139.96, Zone Minimum X= 68.53, Zone Maximum X= 73.11\n   **   ~~~   ** ...X Reference Distance Outside MaximumX= 66.8576 m.\n   ** Warning ** GeometryTransformForDaylighting: Reference point X Value outside Zone Min/Max X, Zone=PERIMETER_BOT_ZN_2 ZN\n   **   ~~~   ** ...X Reference Point= 139.96, Zone Minimum X= 68.53, Zone Maximum X= 73.11\n   **   ~~~   ** ...X Reference Distance Outside MaximumX= 66.8576 m.\n   ** Warning ** GeometryTransformForDaylighting: Reference point Y Value outside Zone Min/Max Y, Zone=PERIMETER_BOT_ZN_3 ZN\n   **   ~~~   ** ...Y Reference Point= 91.23, Zone Minimum Y= 44.17, Zone Maximum Y= 48.74\n   **   ~~~   ** ...Y Reference Distance Outside MaximumY= 42.4886 m.\n   ** Warning ** GeometryTransformForDaylighting: Reference point Y Value outside Zone Min/Max Y, Zone=PERIMETER_BOT_ZN_3 ZN\n   **   ~~~   ** ...Y Reference Point= 91.23, Zone Minimum Y= 44.17, Zone Maximum Y= 48.74\n   **   ~~~   ** ...Y Reference Distance Outside MaximumY= 42.4886 m.\n   ** Warning ** GeometryTransformForDaylighting: Reference point Z Value outside Zone Min/Max Z, Zone=PERIMETER_MID_ZN_1 ZN\n   **   ~~~   ** ...Z Reference Point= 37.34, Zone Minimum Z= 19.82, Zone Maximum Z= 22.56\n   **   ~~~   ** ...Z Reference Distance Outside MaximumZ= 14.7820 m.\n   ** Warning ** GeometryTransformForDaylighting: Reference point Z Value outside Zone Min/Max Z, Zone=PERIMETER_MID_ZN_1 ZN\n   **   ~~~   ** ...Z Reference Point= 37.34, Zone Minimum Z= 19.82, Zone Maximum Z= 22.56\n   **   ~~~   ** ...Z Reference Distance Outside MaximumZ= 14.7820 m.\n   ** Warning ** GeometryTransformForDaylighting: Reference point X Value outside Zone Min/Max X, Zone=PERIMETER_MID_ZN_2 ZN\n   **   ~~~   ** ...X Reference Point= 139.96, Zone Minimum X= 68.53, Zone Maximum X= 73.11\n   **   ~~~   ** ...X Reference Distance Outside MaximumX= 66.8576 m.\n   ** Warning ** GeometryTransformForDaylighting: Reference point Z Value outside Zone Min/Max Z, Zone=PERIMETER_MID_ZN_2 ZN\n   **   ~~~   ** ...Z Reference Point= 37.34, Zone Minimum Z= 19.82, Zone Maximum Z= 22.56\n   **   ~~~   ** ...Z Reference Distance Outside MaximumZ= 14.7820 m.\n   ** Warning ** GeometryTransformForDaylighting: Reference point X Value outside Zone Min/Max X, Zone=PERIMETER_MID_ZN_2 ZN\n   **   ~~~   ** ...X Reference Point= 139.96, Zone Minimum X= 68.53, Zone Maximum X= 73.11\n   **   ~~~   ** ...X Reference Distance Outside MaximumX= 66.8576 m.\n   ** Warning ** GeometryTransformForDaylighting: Reference point Z Value outside Zone Min/Max Z, Zone=PERIMETER_MID_ZN_2 ZN\n   **   ~~~   ** ...Z Reference Point= 37.34, Zone Minimum Z= 19.82, Zone Maximum Z= 22.56\n   **   ~~~   ** ...Z Reference Distance Outside MaximumZ= 14.7820 m.\n   ** Warning ** GeometryTransformForDaylighting: Reference point Y Value outside Zone Min/Max Y, Zone=PERIMETER_MID_ZN_3 ZN\n   **   ~~~   ** ...Y Reference Point= 91.23, Zone Minimum Y= 44.17, Zone Maximum Y= 48.74\n   **   ~~~   ** ...Y Reference Distance Outside MaximumY= 42.4886 m.\n   ** Warning ** GeometryTransformForDaylighting: Reference point Z Value outside Zone Min/Max Z, Zone=PERIMETER_MID_ZN_3 ZN\n   **   ~~~   ** ...Z Reference Point= 37.34, Zone Minimum Z= 19.82, Zone Maximum Z= 22.56\n   **   ~~~   ** ...Z Reference Distance Outside MaximumZ= 14.7820 m.\n   ** Warning ** GeometryTransformForDaylighting: Reference point Y Value outside Zone Min/Max Y, Zone=PERIMETER_MID_ZN_3 ZN\n   **   ~~~   ** ...Y Reference Point= 91.23, Zone Minimum Y= 44.17, Zone Maximum Y= 48.74\n   **   ~~~   ** ...Y Reference Distance Outside MaximumY= 42.4886 m.\n   ** Warning ** GeometryTransformForDaylighting: Reference point Z Value outside Zone Min/Max Z, Zone=PERIMETER_MID_ZN_3 ZN\n   **   ~~~   ** ...Z Reference Point= 37.34, Zone Minimum Z= 19.82, Zone Maximum Z= 22.56\n   **   ~~~   ** ...Z Reference Distance Outside MaximumZ= 14.7820 m.\n   ** Warning ** GeometryTransformForDaylighting: Reference point Z Value outside Zone Min/Max Z, Zone=PERIMETER_MID_ZN_4 ZN\n   **   ~~~   ** ...Z Reference Point= 37.34, Zone Minimum Z= 19.82, Zone Maximum Z= 22.56\n   **   ~~~   ** ...Z Reference Distance Outside MaximumZ= 14.7820 m.\n   ** Warning ** GeometryTransformForDaylighting: Reference point Z Value outside Zone Min/Max Z, Zone=PERIMETER_MID_ZN_4 ZN\n   **   ~~~   ** ...Z Reference Point= 37.34, Zone Minimum Z= 19.82, Zone Maximum Z= 22.56\n   **   ~~~   ** ...Z Reference Distance Outside MaximumZ= 14.7820 m.\n   ** Warning ** GeometryTransformForDaylighting: Reference point Z Value outside Zone Min/Max Z, Zone=PERIMETER_TOP_ZN_1 ZN\n   **   ~~~   ** ...Z Reference Point= 77.89, Zone Minimum Z= 43.60, Zone Maximum Z= 46.34\n   **   ~~~   ** ...Z Reference Distance Outside MaximumZ= 31.5460 m.\n   ** Warning ** GeometryTransformForDaylighting: Reference point Z Value outside Zone Min/Max Z, Zone=PERIMETER_TOP_ZN_1 ZN\n   **   ~~~   ** ...Z Reference Point= 77.89, Zone Minimum Z= 43.60, Zone Maximum Z= 46.34\n   **   ~~~   ** ...Z Reference Distance Outside MaximumZ= 31.5460 m.\n   ** Warning ** GeometryTransformForDaylighting: Reference point X Value outside Zone Min/Max X, Zone=PERIMETER_TOP_ZN_2 ZN\n   **   ~~~   ** ...X Reference Point= 139.96, Zone Minimum X= 68.53, Zone Maximum X= 73.11\n   **   ~~~   ** ...X Reference Distance Outside MaximumX= 66.8576 m.\n   ** Warning ** GeometryTransformForDaylighting: Reference point Z Value outside Zone Min/Max Z, Zone=PERIMETER_TOP_ZN_2 ZN\n   **   ~~~   ** ...Z Reference Point= 77.89, Zone Minimum Z= 43.60, Zone Maximum Z= 46.34\n   **   ~~~   ** ...Z Reference Distance Outside MaximumZ= 31.5460 m.\n   ** Warning ** GeometryTransformForDaylighting: Reference point X Value outside Zone Min/Max X, Zone=PERIMETER_TOP_ZN_2 ZN\n   **   ~~~   ** ...X Reference Point= 139.96, Zone Minimum X= 68.53, Zone Maximum X= 73.11\n   **   ~~~   ** ...X Reference Distance Outside MaximumX= 66.8576 m.\n   ** Warning ** GeometryTransformForDaylighting: Reference point Z Value outside Zone Min/Max Z, Zone=PERIMETER_TOP_ZN_2 ZN\n   **   ~~~   ** ...Z Reference Point= 77.89, Zone Minimum Z= 43.60, Zone Maximum Z= 46.34\n   **   ~~~   ** ...Z Reference Distance Outside MaximumZ= 31.5460 m.\n   ** Warning ** GeometryTransformForDaylighting: Reference point Y Value outside Zone Min/Max Y, Zone=PERIMETER_TOP_ZN_3 ZN\n   **   ~~~   ** ...Y Reference Point= 91.23, Zone Minimum Y= 44.17, Zone Maximum Y= 48.74\n   **   ~~~   ** ...Y Reference Distance Outside MaximumY= 42.4886 m.\n   ** Warning ** GeometryTransformForDaylighting: Reference point Z Value outside Zone Min/Max Z, Zone=PERIMETER_TOP_ZN_3 ZN\n   **   ~~~   ** ...Z Reference Point= 77.89, Zone Minimum Z= 43.60, Zone Maximum Z= 46.34\n   **   ~~~   ** ...Z Reference Distance Outside MaximumZ= 31.5460 m.\n   ** Warning ** GeometryTransformForDaylighting: Reference point Y Value outside Zone Min/Max Y, Zone=PERIMETER_TOP_ZN_3 ZN\n   **   ~~~   ** ...Y Reference Point= 91.23, Zone Minimum Y= 44.17, Zone Maximum Y= 48.74\n   **   ~~~   ** ...Y Reference Distance Outside MaximumY= 42.4886 m.\n   ** Warning ** GeometryTransformForDaylighting: Reference point Z Value outside Zone Min/Max Z, Zone=PERIMETER_TOP_ZN_3 ZN\n   **   ~~~   ** ...Z Reference Point= 77.89, Zone Minimum Z= 43.60, Zone Maximum Z= 46.34\n   **   ~~~   ** ...Z Reference Distance Outside MaximumZ= 31.5460 m.\n   ** Warning ** GeometryTransformForDaylighting: Reference point Z Value outside Zone Min/Max Z, Zone=PERIMETER_TOP_ZN_4 ZN\n   **   ~~~   ** ...Z Reference Point= 77.89, Zone Minimum Z= 43.60, Zone Maximum Z= 46.34\n   **   ~~~   ** ...Z Reference Distance Outside MaximumZ= 31.5460 m.\n   ** Warning ** GeometryTransformForDaylighting: Reference point Z Value outside Zone Min/Max Z, Zone=PERIMETER_TOP_ZN_4 ZN\n   **   ~~~   ** ...Z Reference Point= 77.89, Zone Minimum Z= 43.60, Zone Maximum Z= 46.34\n   **   ~~~   ** ...Z Reference Distance Outside MaximumZ= 31.5460 m.\n   ** Warning ** Calculated design heating load for zone=DATACENTER_BASEMENT_ZN_6 ZN is zero.\n   **   ~~~   ** Check Sizing:Zone and ZoneControl:Thermostat inputs.\n   ** Warning ** Calculated design heating load for zone=DATACENTER_BOT_ZN_6 ZN is zero.\n   **   ~~~   ** Check Sizing:Zone and ZoneControl:Thermostat inputs.\n   ** Warning ** Calculated design heating load for zone=DATACENTER_MID_ZN_6 ZN is zero.\n   **   ~~~   ** Check Sizing:Zone and ZoneControl:Thermostat inputs.\n   ** Warning ** Calculated design heating load for zone=DATACENTER_TOP_ZN_6 ZN is zero.\n   **   ~~~   ** Check Sizing:Zone and ZoneControl:Thermostat inputs.\n   ************* Beginning System Sizing Calculations\n   ** Warning ** Since Zone Minimum Air Flow Input Method = CONSTANT, input for Fixed Minimum Air Flow Rate will be ignored.\n   **   ~~~   ** Occurs in AirTerminal:SingleDuct:VAV:Reheat = BASEMENT ZN VAV TERMINAL\n   ** Warning ** Since Zone Minimum Air Flow Input Method = CONSTANT, input for Fixed Minimum Air Flow Rate will be ignored.\n   **   ~~~   ** Occurs in AirTerminal:SingleDuct:VAV:Reheat = CORE_BOTTOM ZN VAV TERMINAL\n   ** Warning ** Since Zone Minimum Air Flow Input Method = CONSTANT, input for Fixed Minimum Air Flow Rate will be ignored.\n   **   ~~~   ** Occurs in AirTerminal:SingleDuct:VAV:Reheat = CORE_MID ZN VAV TERMINAL\n   ** Warning ** Since Zone Minimum Air Flow Input Method = CONSTANT, input for Fixed Minimum Air Flow Rate will be ignored.\n   **   ~~~   ** Occurs in AirTerminal:SingleDuct:VAV:Reheat = CORE_TOP ZN VAV TERMINAL\n   ** Warning ** Since Zone Minimum Air Flow Input Method = CONSTANT, input for Fixed Minimum Air Flow Rate will be ignored.\n   **   ~~~   ** Occurs in AirTerminal:SingleDuct:VAV:Reheat = PERIMETER_BOT_ZN_1 ZN VAV TERMINAL\n   ** Warning ** Since Zone Minimum Air Flow Input Method = CONSTANT, input for Fixed Minimum Air Flow Rate will be ignored.\n   **   ~~~   ** Occurs in AirTerminal:SingleDuct:VAV:Reheat = PERIMETER_BOT_ZN_2 ZN VAV TERMINAL\n   ** Warning ** Since Zone Minimum Air Flow Input Method = CONSTANT, input for Fixed Minimum Air Flow Rate will be ignored.\n   **   ~~~   ** Occurs in AirTerminal:SingleDuct:VAV:Reheat = PERIMETER_BOT_ZN_3 ZN VAV TERMINAL\n   ** Warning ** Since Zone Minimum Air Flow Input Method = CONSTANT, input for Fixed Minimum Air Flow Rate will be ignored.\n   **   ~~~   ** Occurs in AirTerminal:SingleDuct:VAV:Reheat = PERIMETER_BOT_ZN_4 ZN VAV TERMINAL\n   ** Warning ** Since Zone Minimum Air Flow Input Method = CONSTANT, input for Fixed Minimum Air Flow Rate will be ignored.\n   **   ~~~   ** Occurs in AirTerminal:SingleDuct:VAV:Reheat = PERIMETER_MID_ZN_1 ZN VAV TERMINAL\n   ** Warning ** Since Zone Minimum Air Flow Input Method = CONSTANT, input for Fixed Minimum Air Flow Rate will be ignored.\n   **   ~~~   ** Occurs in AirTerminal:SingleDuct:VAV:Reheat = PERIMETER_MID_ZN_2 ZN VAV TERMINAL\n   ** Warning ** Since Zone Minimum Air Flow Input Method = CONSTANT, input for Fixed Minimum Air Flow Rate will be ignored.\n   **   ~~~   ** Occurs in AirTerminal:SingleDuct:VAV:Reheat = PERIMETER_MID_ZN_3 ZN VAV TERMINAL\n   ** Warning ** Since Zone Minimum Air Flow Input Method = CONSTANT, input for Fixed Minimum Air Flow Rate will be ignored.\n   **   ~~~   ** Occurs in AirTerminal:SingleDuct:VAV:Reheat = PERIMETER_MID_ZN_4 ZN VAV TERMINAL\n   ** Warning ** Since Zone Minimum Air Flow Input Method = CONSTANT, input for Fixed Minimum Air Flow Rate will be ignored.\n   **   ~~~   ** Occurs in AirTerminal:SingleDuct:VAV:Reheat = PERIMETER_TOP_ZN_1 ZN VAV TERMINAL\n   ** Warning ** Since Zone Minimum Air Flow Input Method = CONSTANT, input for Fixed Minimum Air Flow Rate will be ignored.\n   **   ~~~   ** Occurs in AirTerminal:SingleDuct:VAV:Reheat = PERIMETER_TOP_ZN_2 ZN VAV TERMINAL\n   ** Warning ** Since Zone Minimum Air Flow Input Method = CONSTANT, input for Fixed Minimum Air Flow Rate will be ignored.\n   **   ~~~   ** Occurs in AirTerminal:SingleDuct:VAV:Reheat = PERIMETER_TOP_ZN_3 ZN VAV TERMINAL\n   ** Warning ** Since Zone Minimum Air Flow Input Method = CONSTANT, input for Fixed Minimum Air Flow Rate will be ignored.\n   **   ~~~   ** Occurs in AirTerminal:SingleDuct:VAV:Reheat = PERIMETER_TOP_ZN_4 ZN VAV TERMINAL\n   ** Warning ** AirLoopHVAC:UnitarySystem = DATACENTER_BASEMENT_ZN_6 ZN UNITARY HP\n   **   ~~~   ** Method used to determine the cooling supply air flow rate is not specified when cooling coil is present.\n   ** Warning ** AirLoopHVAC:UnitarySystem = DATACENTER_BASEMENT_ZN_6 ZN UNITARY HP\n   **   ~~~   ** Method used to determine the heating supply air flow rate is not specified when heating coil is present.\n   ** Warning ** AirLoopHVAC:UnitarySystem = DATACENTER_BOT_ZN_6 ZN UNITARY HP\n   **   ~~~   ** Method used to determine the cooling supply air flow rate is not specified when cooling coil is present.\n   ** Warning ** AirLoopHVAC:UnitarySystem = DATACENTER_BOT_ZN_6 ZN UNITARY HP\n   **   ~~~   ** Method used to determine the heating supply air flow rate is not specified when heating coil is present.\n   ** Warning ** AirLoopHVAC:UnitarySystem = DATACENTER_MID_ZN_6 ZN UNITARY HP\n   **   ~~~   ** Method used to determine the cooling supply air flow rate is not specified when cooling coil is present.\n   ** Warning ** AirLoopHVAC:UnitarySystem = DATACENTER_MID_ZN_6 ZN UNITARY HP\n   **   ~~~   ** Method used to determine the heating supply air flow rate is not specified when heating coil is present.\n   ** Warning ** AirLoopHVAC:UnitarySystem = DATACENTER_TOP_ZN_6 ZN UNITARY HP\n   **   ~~~   ** Method used to determine the cooling supply air flow rate is not specified when cooling coil is present.\n   ** Warning ** AirLoopHVAC:UnitarySystem = DATACENTER_TOP_ZN_6 ZN UNITARY HP\n   **   ~~~   ** Method used to determine the heating supply air flow rate is not specified when heating coil is present.\n   ** Warning ** ManageSizing: Calculated Heating Design Air Flow Rate for System=DATACENTER_BASEMENT_ZN_6 ZN PSZ-AC DATA CENTER is zero.\n   **   ~~~   ** Check Sizing:Zone and ZoneControl:Thermostat inputs.\n   ** Warning ** ManageSizing: Calculated Heating Design Air Flow Rate for System=DATACENTER_BOT_ZN_6 ZN PSZ-AC DATA CENTER is zero.\n   **   ~~~   ** Check Sizing:Zone and ZoneControl:Thermostat inputs.\n   ** Warning ** ManageSizing: Calculated Heating Design Air Flow Rate for System=DATACENTER_MID_ZN_6 ZN PSZ-AC DATA CENTER is zero.\n   **   ~~~   ** Check Sizing:Zone and ZoneControl:Thermostat inputs.\n   ** Warning ** ManageSizing: Calculated Heating Design Air Flow Rate for System=DATACENTER_TOP_ZN_6 ZN PSZ-AC DATA CENTER is zero.\n   **   ~~~   ** Check Sizing:Zone and ZoneControl:Thermostat inputs.\n   ************* Beginning Plant Sizing Calculations\n   ** Warning ** GetOAControllerInputs: Controller:MechanicalVentilation=\"CAV_BAS VENT CONTROLLER\n   **   ~~~   ** Cannot locate a matching DesignSpecification:ZoneAirDistribution object for Zone=\"BASEMENT ZN\".\n   **   ~~~   ** Using default zone air distribution effectiveness of 1.0 for heating and cooling.\n   ** Warning ** GetOAControllerInputs: Controller:MechanicalVentilation=\"VAV_BOT WITH REHEAT VENT CONTROLLER\n   **   ~~~   ** Cannot locate a matching DesignSpecification:ZoneAirDistribution object for Zone=\"CORE_BOTTOM ZN\".\n   **   ~~~   ** Using default zone air distribution effectiveness of 1.0 for heating and cooling.\n   ** Warning ** GetOAControllerInputs: Controller:MechanicalVentilation=\"VAV_BOT WITH REHEAT VENT CONTROLLER\n   **   ~~~   ** Cannot locate a matching DesignSpecification:ZoneAirDistribution object for Zone=\"PERIMETER_BOT_ZN_1 ZN\".\n   **   ~~~   ** Using default zone air distribution effectiveness of 1.0 for heating and cooling.\n   ** Warning ** GetOAControllerInputs: Controller:MechanicalVentilation=\"VAV_BOT WITH REHEAT VENT CONTROLLER\n   **   ~~~   ** Cannot locate a matching DesignSpecification:ZoneAirDistribution object for Zone=\"PERIMETER_BOT_ZN_2 ZN\".\n   **   ~~~   ** Using default zone air distribution effectiveness of 1.0 for heating and cooling.\n   ** Warning ** GetOAControllerInputs: Controller:MechanicalVentilation=\"VAV_BOT WITH REHEAT VENT CONTROLLER\n   **   ~~~   ** Cannot locate a matching DesignSpecification:ZoneAirDistribution object for Zone=\"PERIMETER_BOT_ZN_3 ZN\".\n   **   ~~~   ** Using default zone air distribution effectiveness of 1.0 for heating and cooling.\n   ** Warning ** GetOAControllerInputs: Controller:MechanicalVentilation=\"VAV_BOT WITH REHEAT VENT CONTROLLER\n   **   ~~~   ** Cannot locate a matching DesignSpecification:ZoneAirDistribution object for Zone=\"PERIMETER_BOT_ZN_4 ZN\".\n   **   ~~~   ** Using default zone air distribution effectiveness of 1.0 for heating and cooling.\n   ** Warning ** GetOAControllerInputs: Controller:MechanicalVentilation=\"VAV_MID WITH REHEAT VENT CONTROLLER\n   **   ~~~   ** Cannot locate a matching DesignSpecification:ZoneAirDistribution object for Zone=\"CORE_MID ZN\".\n   **   ~~~   ** Using default zone air distribution effectiveness of 1.0 for heating and cooling.\n   ** Warning ** GetOAControllerInputs: Controller:MechanicalVentilation=\"VAV_MID WITH REHEAT VENT CONTROLLER\n   **   ~~~   ** Cannot locate a matching DesignSpecification:ZoneAirDistribution object for Zone=\"PERIMETER_MID_ZN_1 ZN\".\n   **   ~~~   ** Using default zone air distribution effectiveness of 1.0 for heating and cooling.\n   ** Warning ** GetOAControllerInputs: Controller:MechanicalVentilation=\"VAV_MID WITH REHEAT VENT CONTROLLER\n   **   ~~~   ** Cannot locate a matching DesignSpecification:ZoneAirDistribution object for Zone=\"PERIMETER_MID_ZN_2 ZN\".\n   **   ~~~   ** Using default zone air distribution effectiveness of 1.0 for heating and cooling.\n   ** Warning ** GetOAControllerInputs: Controller:MechanicalVentilation=\"VAV_MID WITH REHEAT VENT CONTROLLER\n   **   ~~~   ** Cannot locate a matching DesignSpecification:ZoneAirDistribution object for Zone=\"PERIMETER_MID_ZN_3 ZN\".\n   **   ~~~   ** Using default zone air distribution effectiveness of 1.0 for heating and cooling.\n   ** Warning ** GetOAControllerInputs: Controller:MechanicalVentilation=\"VAV_MID WITH REHEAT VENT CONTROLLER\n   **   ~~~   ** Cannot locate a matching DesignSpecification:ZoneAirDistribution object for Zone=\"PERIMETER_MID_ZN_4 ZN\".\n   **   ~~~   ** Using default zone air distribution effectiveness of 1.0 for heating and cooling.\n   ** Warning ** GetOAControllerInputs: Controller:MechanicalVentilation=\"VAV_TOP WITH REHEAT VENT CONTROLLER\n   **   ~~~   ** Cannot locate a matching DesignSpecification:ZoneAirDistribution object for Zone=\"CORE_TOP ZN\".\n   **   ~~~   ** Using default zone air distribution effectiveness of 1.0 for heating and cooling.\n   ** Warning ** GetOAControllerInputs: Controller:MechanicalVentilation=\"VAV_TOP WITH REHEAT VENT CONTROLLER\n   **   ~~~   ** Cannot locate a matching DesignSpecification:ZoneAirDistribution object for Zone=\"PERIMETER_TOP_ZN_1 ZN\".\n   **   ~~~   ** Using default zone air distribution effectiveness of 1.0 for heating and cooling.\n   ** Warning ** GetOAControllerInputs: Controller:MechanicalVentilation=\"VAV_TOP WITH REHEAT VENT CONTROLLER\n   **   ~~~   ** Cannot locate a matching DesignSpecification:ZoneAirDistribution object for Zone=\"PERIMETER_TOP_ZN_2 ZN\".\n   **   ~~~   ** Using default zone air distribution effectiveness of 1.0 for heating and cooling.\n   ** Warning ** GetOAControllerInputs: Controller:MechanicalVentilation=\"VAV_TOP WITH REHEAT VENT CONTROLLER\n   **   ~~~   ** Cannot locate a matching DesignSpecification:ZoneAirDistribution object for Zone=\"PERIMETER_TOP_ZN_3 ZN\".\n   **   ~~~   ** Using default zone air distribution effectiveness of 1.0 for heating and cooling.\n   ** Warning ** GetOAControllerInputs: Controller:MechanicalVentilation=\"VAV_TOP WITH REHEAT VENT CONTROLLER\n   **   ~~~   ** Cannot locate a matching DesignSpecification:ZoneAirDistribution object for Zone=\"PERIMETER_TOP_ZN_4 ZN\".\n   **   ~~~   ** Using default zone air distribution effectiveness of 1.0 for heating and cooling.\n   ** Warning ** GetOAControllerInputs: Controller:MechanicalVentilation=\"CONTROLLER MECHANICAL VENTILATION 1\n   **   ~~~   ** Cannot locate a matching DesignSpecification:ZoneAirDistribution object for Zone=\"DATACENTER_BASEMENT_ZN_6 ZN\".\n   **   ~~~   ** Using default zone air distribution effectiveness of 1.0 for heating and cooling.\n   ** Warning ** GetOAControllerInputs: Controller:MechanicalVentilation=\"CONTROLLER MECHANICAL VENTILATION 2\n   **   ~~~   ** Cannot locate a matching DesignSpecification:ZoneAirDistribution object for Zone=\"DATACENTER_BOT_ZN_6 ZN\".\n   **   ~~~   ** Using default zone air distribution effectiveness of 1.0 for heating and cooling.\n   ** Warning ** GetOAControllerInputs: Controller:MechanicalVentilation=\"CONTROLLER MECHANICAL VENTILATION 3\n   **   ~~~   ** Cannot locate a matching DesignSpecification:ZoneAirDistribution object for Zone=\"DATACENTER_MID_ZN_6 ZN\".\n   **   ~~~   ** Using default zone air distribution effectiveness of 1.0 for heating and cooling.\n   ** Warning ** GetOAControllerInputs: Controller:MechanicalVentilation=\"CONTROLLER MECHANICAL VENTILATION 4\n   **   ~~~   ** Cannot locate a matching DesignSpecification:ZoneAirDistribution object for Zone=\"DATACENTER_TOP_ZN_6 ZN\".\n   **   ~~~   ** Using default zone air distribution effectiveness of 1.0 for heating and cooling.\n   ** Warning ** In calculating the design coil UA for Coil:Cooling:Water VAV_BOT WITH REHEAT CLG COIL\n   **   ~~~   ** the coil bypass factor is unrealistically large;\n   **   ~~~   ** The initial design conditions are: Tair,in = 26.3429\n   **   ~~~   **                                    Wair,in = 1.063315E-002\n   **   ~~~   **                                    Twater,in = 6.6667\n   **   ~~~   **                                    Tair,out = 10.9344\n   **   ~~~   **                                    Wair,out = 8.500000E-003\n   ** Warning ** In calculating the design coil UA for Coil:Cooling:Water VAV_MID WITH REHEAT CLG COIL\n   **   ~~~   ** the coil bypass factor is unrealistically large;\n   **   ~~~   ** The initial design conditions are: Tair,in = 26.7616\n   **   ~~~   **                                    Wair,in = 1.101139E-002\n   **   ~~~   **                                    Twater,in = 6.6667\n   **   ~~~   **                                    Tair,out = 10.9759\n   **   ~~~   **                                    Wair,out = 8.500000E-003\n   ** Warning ** In calculating the design coil UA for Coil:Cooling:Water VAV_TOP WITH REHEAT CLG COIL\n   **   ~~~   ** the coil bypass factor is unrealistically large;\n   **   ~~~   ** The initial design conditions are: Tair,in = 26.5420\n   **   ~~~   **                                    Wair,in = 1.084337E-002\n   **   ~~~   **                                    Twater,in = 6.6667\n   **   ~~~   **                                    Tair,out = 10.9253\n   **   ~~~   **                                    Wair,out = 8.500000E-003\n   ** Warning ** Output:Meter: invalid Key Name=\"HEATING:GAS\" - not found.\n   ** Warning ** Output:Meter: invalid Key Name=\"EXTERIORLIGHTING:ELECTRICITY\" - not found.\n   ** Warning ** Output:Meter: invalid Key Name=\"GAS:FACILITY\" - not found.\n   ** Warning ** Output:Meter: invalid Key Name=\"DISTRICTCOOLING:FACILITY\" - not found.\n   ** Warning ** Output:Meter: invalid Key Name=\"DISTRICTHEATING:FACILITY\" - not found.\n   ** Warning ** Output:Meter:MeterFileOnly requested for \"Electricity:Facility\" (TimeStep), already on \"Output:Meter\". Will report to both eplusout.eso and eplusout.mtr\n   ************* Testing Individual Branch Integrity\n   ************* All Branches passed integrity testing\n   ************* Testing Individual Supply Air Path Integrity\n   ************* All Supply Air Paths passed integrity testing\n   ************* Testing Individual Return Air Path Integrity\n   ************* All Return Air Paths passed integrity testing\n   ************* No node connection errors were found.\n   ** Warning ** CoolingTower:VariableSpeed \"CENTRIFUGAL VARIABLE SPEED FAN OPEN COOLING TOWER 38.2 GPM/HP\" - Tower range temperature is outside model boundaries at 0.91.\n   **   ~~~   **  ...Valid range = 1.11 to 11.11. Occurrence info = TAMPA-MACDILL.AFB_FL_USA ANN CLG .4% CONDNS DB=>MWB HVAC Sizing Pass 1, 08/21 00:00 - 00:02\n   **   ~~~   **  ...Tower range temperature passed to the model = 0.90597\n   **   ~~~   **  ...Range temperatures outside model boundaries may not adversely affect tower performance.\n   **   ~~~   **  ...This is not an unexpected occurrence when simulating actual conditions.\n   ** Warning ** CalcOAController: Minimum OA fraction > Mechanical Ventilation Controller request for Controller:OutdoorAir=VAV_MID WITH REHEAT OA CONTROLLER, Min OA fraction is used.\n   **   ~~~   ** This may be overriding desired ventilation controls. Check inputs for Minimum Outdoor Air Flow Rate, Minimum Outdoor Air Schedule Name and Controller:MechanicalVentilation\n   **   ~~~   ** Minimum OA fraction = 0.2747, Mech Vent OA fraction = 0.1648\n   **   ~~~   **  Environment=TAMPA-MACDILL.AFB_FL_USA ANN CLG .4% CONDNS DB=>MWB HVAC Sizing Pass 1, at Simulation time=08/21 07:00 - 07:10\n   ** Warning ** HeatExchanger:AirToAir:SensibleAndLatent \"CAV_BAS ERV\"\n   **   ~~~   ** Average air volume flow rate is <50% or >130% of the nominal HX supply air volume flow rate.\n   **   ~~~   ** Air volume flow rate ratio = 2.721. Environment=TAMPA-MACDILL.AFB_FL_USA ANN CLG .4% CONDNS DB=>MWB HVAC Sizing Pass 1, at Simulation time=08/21 07:00 - 07:10\n   ** Warning ** CoolingTower:VariableSpeed \"CENTRIFUGAL VARIABLE SPEED FAN OPEN COOLING TOWER 38.2 GPM/HP\" - Tower approach temperature is outside model boundaries at 16.51.\n   **   ~~~   **  ...Valid range = 1.11 to 11.11. Occurrence info = TAMPA-MACDILL.AFB_FL_USA ANN HTG 99.6% CONDNS DB HVAC Sizing Pass 1, 01/21 06:00 - 06:03\n   **   ~~~   **  ...Tower approach temperature passed to the model = 16.51112\n   **   ~~~   **  ...Approach temperatures outside model boundaries may not adversely affect tower performance.\n   **   ~~~   **  ...This is not an unexpected occurrence when simulating actual conditions.\n   ** Warning ** SimHVAC: Maximum iterations (20) exceeded for all HVAC loops, at TAMPA-MACDILL.AFB_FL_USA ANN HTG 99.6% CONDNS DB HVAC Sizing Pass 1, 01/21 07:40 - 07:50\n   **   ~~~   ** The solution for one or more of the Air Loop HVAC systems did not appear to converge\n   **   ~~~   ** ...use Output:Diagnostics,DisplayExtraWarnings; to show more details on each max iteration exceeded.\n   ************* Beginning Simulation\n   ** Warning ** SimHVAC: Maximum iterations (20) exceeded for all HVAC loops, at RUN PERIOD 1, 01/03 08:17 - 08:20\n   **   ~~~   ** The solution for one or more of the Air Loop HVAC systems did not appear to converge\n   ** Warning ** SimHVAC: Maximum iterations (20) exceeded for all HVAC loops, at RUN PERIOD 1, 01/03 08:20 - 08:30\n   **   ~~~   ** The solution for one or more of the Air Loop HVAC systems did not appear to converge\n   ** Warning ** SimHVAC: Maximum iterations (20) exceeded for all HVAC loops, at RUN PERIOD 1, 01/03 08:20 - 08:23\n   **   ~~~   ** The solution for one or more of the Air Loop HVAC systems did not appear to converge\n   ** Warning ** SimHVAC: Maximum iterations (20) exceeded for all HVAC loops, at RUN PERIOD 1, 01/03 08:30 - 08:33\n   **   ~~~   ** The solution for one or more of the Air Loop HVAC systems did not appear to converge\n   ** Warning ** SimHVAC: Maximum iterations (20) exceeded for all HVAC loops, at RUN PERIOD 1, 01/03 08:33 - 08:37\n   **   ~~~   ** The solution for one or more of the Air Loop HVAC systems did not appear to converge\n   ** Warning ** SimHVAC: Maximum iterations (20) exceeded for all HVAC loops, at RUN PERIOD 1, 01/03 08:40 - 08:50\n   **   ~~~   ** The solution for one or more of the Air Loop HVAC systems did not appear to converge\n   ** Warning ** SimHVAC: Maximum iterations (20) exceeded for all HVAC loops, at RUN PERIOD 1, 01/03 08:50 - 09:00\n   **   ~~~   ** The solution for one or more of the Air Loop HVAC systems did not appear to converge\n   ** Warning ** SimHVAC: Maximum iterations (20) exceeded for all HVAC loops, at RUN PERIOD 1, 01/03 08:50 - 08:55\n   **   ~~~   ** The solution for one or more of the Air Loop HVAC systems did not appear to converge\n   ** Warning ** SimHVAC: Maximum iterations (20) exceeded for all HVAC loops, at RUN PERIOD 1, 01/03 08:55 - 09:00\n   **   ~~~   ** The solution for one or more of the Air Loop HVAC systems did not appear to converge\n   ** Warning ** CoolingTower:VariableSpeed \"CENTRIFUGAL VARIABLE SPEED FAN OPEN COOLING TOWER 38.2 GPM/HP\" - Water flow rate ratio is outside model boundaries at 0.42.\n   **   ~~~   **  ...Valid range = 0.75 to 1.25. Occurrence info = RUN PERIOD 1, 01/03 08:55 - 09:00\n   **   ~~~   **  ...Water flow rate ratio passed to the model = 0.75000\n   **   ~~~   **  ...Water flow rate ratios outside model boundaries may not adversely affect tower performance.\n   ** Warning ** SimHVAC: Maximum iterations (20) exceeded for all HVAC loops, at RUN PERIOD 1, 01/03 09:00 - 09:10\n   **   ~~~   ** The solution for one or more of the Air Loop HVAC systems did not appear to converge\n   ** Warning ** SimHVAC: Maximum iterations (20) exceeded for all HVAC loops, at RUN PERIOD 1, 01/03 09:10 - 09:20\n   **   ~~~   ** The solution for one or more of the Air Loop HVAC systems did not appear to converge\n   ** Warning ** SimHVAC: Maximum iterations (20) exceeded for all HVAC loops, at RUN PERIOD 1, 01/03 09:10 - 09:13\n   **   ~~~   ** The solution for one or more of the Air Loop HVAC systems did not appear to converge\n   ** Warning ** SimHVAC: Maximum iterations (20) exceeded for all HVAC loops, at RUN PERIOD 1, 01/03 17:50 - 18:00\n   **   ~~~   ** The solution for one or more of the Air Loop HVAC systems did not appear to converge\n   ** Warning ** CoolingTower:VariableSpeed \"CENTRIFUGAL VARIABLE SPEED FAN OPEN COOLING TOWER 38.2 GPM/HP\" - Inlet air wet-bulb temperature is outside model boundaries at -1.24.\n   **   ~~~   **  ...Valid range = -1.00 to 26.67. Occurrence info = RUN PERIOD 1, 01/04 06:00 - 06:03\n   **   ~~~   **  ...Inlet air wet-bulb temperature passed to the model = -1.000000\n   **   ~~~   **  ...Wet-bulb temperatures outside model boundaries may not adversely affect tower performance.\n   ** Warning ** CoolingTower:VariableSpeed \"CENTRIFUGAL VARIABLE SPEED FAN OPEN COOLING TOWER 38.2 GPM/HP\" - Inlet air wet-bulb temperature is outside model boundaries at -1.24.\n   **   ~~~   **  ...Valid range = -1.00 to 26.67. Occurrence info = RUN PERIOD 1, 01/04 06:03 - 06:07\n   **   ~~~   **  ...Inlet air wet-bulb temperature passed to the model = -1.000000\n   **   ~~~   **  ...Wet-bulb temperatures outside model boundaries may not adversely affect tower performance.\n   ** Warning ** CoolingTower:VariableSpeed \"CENTRIFUGAL VARIABLE SPEED FAN OPEN COOLING TOWER 38.2 GPM/HP\" - Inlet air wet-bulb temperature is outside model boundaries at -1.24.\n   **   ~~~   **  ...Valid range = -1.00 to 26.67. Occurrence info = RUN PERIOD 1, 01/04 06:07 - 06:10\n   **   ~~~   **  ...Inlet air wet-bulb temperature passed to the model = -1.000000\n   **   ~~~   **  ...Wet-bulb temperatures outside model boundaries may not adversely affect tower performance.\n   ** Warning ** CoolingTower:VariableSpeed \"CENTRIFUGAL VARIABLE SPEED FAN OPEN COOLING TOWER 38.2 GPM/HP\" - Inlet air wet-bulb temperature is outside model boundaries at -1.27.\n   **   ~~~   **  ...Valid range = -1.00 to 26.67. Occurrence info = RUN PERIOD 1, 01/04 06:10 - 06:11\n   **   ~~~   **  ...Inlet air wet-bulb temperature passed to the model = -1.000000\n   **   ~~~   **  ...Wet-bulb temperatures outside model boundaries may not adversely affect tower performance.\n   ** Warning ** CoolingTower:VariableSpeed \"CENTRIFUGAL VARIABLE SPEED FAN OPEN COOLING TOWER 38.2 GPM/HP\" - Inlet air wet-bulb temperature is outside model boundaries at -1.27.\n   **   ~~~   **  ...Valid range = -1.00 to 26.67. Occurrence info = RUN PERIOD 1, 01/04 06:11 - 06:12\n   **   ~~~   **  ...Inlet air wet-bulb temperature passed to the model = -1.000000\n   **   ~~~   **  ...Wet-bulb temperatures outside model boundaries may not adversely affect tower performance.\n   ** Warning ** CoolingTower:VariableSpeed \"CENTRIFUGAL VARIABLE SPEED FAN OPEN COOLING TOWER 38.2 GPM/HP\" - Water flow rate ratio is outside model boundaries at 0.42.\n   **   ~~~   **  ...Valid range = 0.75 to 1.25. Occurrence info = RUN PERIOD 1, 01/04 09:24 - 09:26\n   **   ~~~   **  ...Water flow rate ratio passed to the model = 0.75000\n   **   ~~~   **  ...Water flow rate ratios outside model boundaries may not adversely affect tower performance.\n   ** Warning ** CoolingTower:VariableSpeed \"CENTRIFUGAL VARIABLE SPEED FAN OPEN COOLING TOWER 38.2 GPM/HP\" - Water flow rate ratio is outside model boundaries at 0.42.\n   **   ~~~   **  ...Valid range = 0.75 to 1.25. Occurrence info = RUN PERIOD 1, 01/09 17:20 - 17:25\n   **   ~~~   **  ...Water flow rate ratio passed to the model = 0.75000\n   **   ~~~   **  ...Water flow rate ratios outside model boundaries may not adversely affect tower performance.\n   ** Warning ** CoolingTower:VariableSpeed \"CENTRIFUGAL VARIABLE SPEED FAN OPEN COOLING TOWER 38.2 GPM/HP\" - Water flow rate ratio is outside model boundaries at 0.42.\n   **   ~~~   **  ...Valid range = 0.75 to 1.25. Occurrence info = RUN PERIOD 1, 01/13 08:10 - 08:15\n   **   ~~~   **  ...Water flow rate ratio passed to the model = 0.75000\n   **   ~~~   **  ...Water flow rate ratios outside model boundaries may not adversely affect tower performance.\n   ** Warning ** CoolingTower:VariableSpeed \"CENTRIFUGAL VARIABLE SPEED FAN OPEN COOLING TOWER 38.2 GPM/HP\" - Water flow rate ratio is outside model boundaries at 0.42.\n   **   ~~~   **  ...Valid range = 0.75 to 1.25. Occurrence info = RUN PERIOD 1, 02/17 08:52 - 08:54\n   **   ~~~   **  ...Water flow rate ratio passed to the model = 0.75000\n   **   ~~~   **  ...Water flow rate ratios outside model boundaries may not adversely affect tower performance.\n   ** Warning ** CoolingTower:VariableSpeed \"CENTRIFUGAL VARIABLE SPEED FAN OPEN COOLING TOWER 38.2 GPM/HP\" - Cooling tower air flow rate ratio calculation failed \n   **   ~~~   ** ...with conditions as Twb = 21.64, Trange =  3.95, Tapproach =  2.78, and water flow rate ratio =  0.84\n   **   ~~~   ** ...a solution could not be found within the valid range of air flow rate ratios\n   **   ~~~   **  ...Valid air flow rate ratio range =  0.20 to 1.0.\n   **   ~~~   **  Environment=RUN PERIOD 1, at Simulation time=03/28 16:40 - 16:50\n   **   ~~~   ** ...Consider modifying the design approach or design range temperature for this tower.\n   ** Warning ** GetSpecificHeatGlycol: Temperature is out of range (too high) for fluid [ETHYLENEGLYCOL_40] specific heat **\n   **   ~~~   ** ..Called From:PlantLoopSolver::UpdateAnyLoopDemandAlterations,Temperature=[208.49], supplied data range=[-10.00,125.00]\n   **   ~~~   **  Environment=RUN PERIOD 1, at Simulation time=09/13 04:40 - 04:50\n   ** Warning ** GetDensityGlycol: Temperature is out of range (too high) for fluid [ETHYLENEGLYCOL_40] density **\n   **   ~~~   ** ..Called From:NodeReportingCalc:DATACENTER_MID_ZN_6 ZN PSZ-AC DATA CENTER WATER-TO-AIR HP CLG COIL OUTLET WATER NODE,Temperature=[180.57], supplied data range=[-10.00,125.00]\n   **   ~~~   **  Environment=RUN PERIOD 1, at Simulation time=09/15 04:55 - 04:60\n   ** Warning ** The resource referenced by LifeCycleCost:UsePriceEscalation= \"U.S. AVG  COMMERCIAL-ELECTRICITY\" has no energy cost. \n   **   ~~~   ** ... It is likely that the wrong resource is used. The resource should match the meter used in Utility:Tariff.\n   ** Warning ** The resource referenced by LifeCycleCost:UsePriceEscalation= \"U.S. AVG  COMMERCIAL-DISTILLATE OIL\" has no energy cost. \n   **   ~~~   ** ... It is likely that the wrong resource is used. The resource should match the meter used in Utility:Tariff.\n   ** Warning ** The resource referenced by LifeCycleCost:UsePriceEscalation= \"U.S. AVG  COMMERCIAL-RESIDUAL OIL\" has no energy cost. \n   **   ~~~   ** ... It is likely that the wrong resource is used. The resource should match the meter used in Utility:Tariff.\n   ** Warning ** The resource referenced by LifeCycleCost:UsePriceEscalation= \"U.S. AVG  COMMERCIAL-NATURAL GAS\" has no energy cost. \n   **   ~~~   ** ... It is likely that the wrong resource is used. The resource should match the meter used in Utility:Tariff.\n   ** Warning ** The resource referenced by LifeCycleCost:UsePriceEscalation= \"U.S. AVG  COMMERCIAL-COAL\" has no energy cost. \n   **   ~~~   ** ... It is likely that the wrong resource is used. The resource should match the meter used in Utility:Tariff.\n   ************* Simulation Error Summary *************\n   ************* There are 5 unused schedules in input.\n   ************* There are 5 unused week schedules in input.\n   ************* There are 9 unused day schedules in input.\n   ************* Use Output:Diagnostics,DisplayUnusedSchedules; to see them.\n   *************\n   ************* ===== Recurring Error Summary =====\n   ************* The following recurring error messages occurred.\n   *************\n   *************  ** Warning ** Plant loop exceeding upper temperature limit, PlantLoop=\"HEAT PUMP LOOP\"\n   *************  **   ~~~   **   This error occurred 127377 total times;\n   *************  **   ~~~   **   during Warmup 4240 times;\n   *************  **   ~~~   **   during Sizing 0 times.\n   *************  **   ~~~   **   Max=55.848046\n   *************\n   *************  ** Warning ** CoolingTower:VariableSpeed \"CENTRIFUGAL VARIABLE SPEED FAN OPEN COOLING TOWER 38.2 GPM/HP\" - Tower range temperature is out of range error continues...\n   *************  **   ~~~   **   This error occurred 61000 total times;\n   *************  **   ~~~   **   during Warmup 1 times;\n   *************  **   ~~~   **   during Sizing 0 times.\n   *************  **   ~~~   **   Max=1.111096  Min=5.608923E-006\n   *************\n   *************  ** Warning ** Controller:OutdoorAir=\"VAV_MID WITH REHEAT OA CONTROLLER\": Min OA fraction > Mechanical ventilation OA fraction, continues...\n   *************  **   ~~~   **   This error occurred 1602299 total times;\n   *************  **   ~~~   **   during Warmup 0 times;\n   *************  **   ~~~   **   during Sizing 0 times.\n   *************  **   ~~~   **   Max=0.274677  Min=0.274677\n   *************\n   *************  ** Warning ** HeatExchanger:AirToAir:SensibleAndLatent \"CAV_BAS ERV\":  Average air volume flow rate is <50% or >130% warning continues. Air flow rate ratio statistics follow.\n   *************  **   ~~~   **   This error occurred 56627 total times;\n   *************  **   ~~~   **   during Warmup 0 times;\n   *************  **   ~~~   **   during Sizing 0 times.\n   *************  **   ~~~   **   Max=2.721323  Min=1.300098\n   *************\n   *************  ** Warning ** CoolingTower:VariableSpeed \"CENTRIFUGAL VARIABLE SPEED FAN OPEN COOLING TOWER 38.2 GPM/HP\" - Tower approach temperature is out of range error continues...\n   *************  **   ~~~   **   This error occurred 7246 total times;\n   *************  **   ~~~   **   during Warmup 1 times;\n   *************  **   ~~~   **   during Sizing 0 times.\n   *************  **   ~~~   **   Max=26.495952  Min=11.112082\n   *************\n   *************  ** Warning ** SimHVAC: Exceeding Maximum iterations for all HVAC loops, during RUN PERIOD 1 continues\n   *************  **   ~~~   **   This error occurred 221 total times;\n   *************  **   ~~~   **   during Warmup 0 times;\n   *************  **   ~~~   **   during Sizing 0 times.\n   *************\n   *************  ** Warning ** CoolingTower:VariableSpeed \"CENTRIFUGAL VARIABLE SPEED FAN OPEN COOLING TOWER 38.2 GPM/HP\" - Inlet air wet-bulb temperature is out of range error continues...\n   *************  **   ~~~   **   This error occurred 557 total times;\n   *************  **   ~~~   **   during Warmup 0 times;\n   *************  **   ~~~   **   during Sizing 0 times.\n   *************  **   ~~~   **   Max=28.17765  Min=-5.384841\n   *************\n   *************  ** Warning ** CoolingTower:VariableSpeed \"CENTRIFUGAL VARIABLE SPEED FAN OPEN COOLING TOWER 38.2 GPM/HP\" - Water flow rate ratio is out of range error continues...\n   *************  **   ~~~   **   This error occurred 5 total times;\n   *************  **   ~~~   **   during Warmup 0 times;\n   *************  **   ~~~   **   during Sizing 0 times.\n   *************  **   ~~~   **   Max=0.415831  Min=0.41564\n   *************\n   *************  ** Warning ** CoolingTower:VariableSpeed \"CENTRIFUGAL VARIABLE SPEED FAN OPEN COOLING TOWER 38.2 GPM/HP\" - Cooling tower air flow rate ratio calculation failed error continues.\n   *************  **   ~~~   **   This error occurred 380 total times;\n   *************  **   ~~~   **   during Warmup 0 times;\n   *************  **   ~~~   **   during Sizing 0 times.\n   *************\n   *************  ** Warning ** GetSpecificHeatGlycol: Temperature out of range (too high) for fluid [ETHYLENEGLYCOL_40] specific heat **\n   *************  **   ~~~   **   This error occurred 6 total times;\n   *************  **   ~~~   **   during Warmup 0 times;\n   *************  **   ~~~   **   during Sizing 0 times.\n   *************  **   ~~~   **   Max=225.110604 {C}  Min=127.83308 {C}\n   *************\n   *************  ** Warning ** GetDensityGlycol: Temperature out of range (too high) for fluid [ETHYLENEGLYCOL_40] density **\n   *************  **   ~~~   **   This error occurred 4 total times;\n   *************  **   ~~~   **   during Warmup 0 times;\n   *************  **   ~~~   **   during Sizing 0 times.\n   *************  **   ~~~   **   Max=225.110604 {C}  Min=155.900671 {C}\n   *************\n   *************\n   ************* ===== Final Error Summary =====\n   ************* The following error categories occurred.  Consider correcting or noting.\n   ************* Nominally Unused Constructions\n   ************* ..The nominally unused constructions warning is provided to alert you to potential conditions that can cause\n   ************* ..extra time during simulation. Each construction is calculated by the algorithm indicated in the HeatBalanceAlgorithm\n   ************* ..object. You may remove the constructions indicated (when you use the DisplayExtraWarnings option).\n   *************\n   ************* EnergyPlus Warmup Error Summary. During Warmup: 0 Warning; 0 Severe Errors.\n   ************* EnergyPlus Sizing Error Summary. During Sizing: 97 Warning; 0 Severe Errors.\n   ************* EnergyPlus Completed Successfully-- 1855882 Warning; 0 Severe Errors; Elapsed Time=00hr 04min 44.63sec\n",
  "file_format_version": "0.0.1",
  "file_paths": [
    "/mnt/openstudio/analysis_de910ddf-9641-4d1c-8060-715d502f03f6/data_point_b2efbf05-b16d-43c0-aafa-4844116d944f/generated_files",
    "../weather",
    "../seeds",
    "../seed",
    "../lib",
    "./files",
    "./weather",
    "../../files",
    "../../weather",
    "./"
  ],
  "hash": "07F861E2",
  "measure_paths": [
    "../measures"
  ],
  "name": "Large Office Heating and Cooling",
  "osa_id": "de910ddf-9641-4d1c-8060-715d502f03f6",
  "osd_id": "b2efbf05-b16d-43c0-aafa-4844116d944f",
  "run_directory": "./run",
  "seed_file": "example_model_misnamed_loop.osm",
  "started_at": "20201109T232536Z",
  "steps": [
    {
      "arguments": {
        "__SKIP__": false,
        "building_type": "LargeOffice",
        "climate_zone": "ASHRAE 169-2013-2A",
        "epw_file": "Not Applicable",
        "template": "90.1-2010"
      },
      "description": "Create Prototypical Building",
      "measure_dir_name": "cd977924-f8f2-4519-8756-9ba34ba49714",
      "name": "Create Prototypical Building",
      "result": {
        "completed_at": "20201109T232607Z",
        "measure_class_name": "CreateDOEPrototypeBuilding",
        "measure_display_name": "Create DOE Prototype Building",
        "measure_name": "create_doe_prototype_building",
        "measure_taxonomy": "Whole Building.Space Types",
        "measure_type": "ModelMeasure",
        "measure_uid": "be90fd0b-a651-467a-bc8d-29d310b0f937",
        "measure_version_id": "5f701149-4008-4109-9f72-11c13573f322",
        "measure_version_modified": "20201026T220914Z",
        "measure_xml_checksum": "057E8D9D",
        "started_at": "20201109T232538Z",
        "stderr": "",
        "stdout": "[openstudio.model.YearDescription] <1> 'UseWeatherFile' is not yet a supported option for YearDescription\n[openstudio.model.YearDescription] <1> 'UseWeatherFile' is not yet a supported option for YearDescription\n[openstudio.model.YearDescription] <1> 'UseWeatherFile' is not yet a supported option for YearDescription\n[openstudio.model.YearDescription] <1> 'UseWeatherFile' is not yet a supported option for YearDescription\n",
        "step_errors": [],
        "step_files": [],
        "step_info": [
          "Using OpenStudio Standards version 0.2.12 with template 90.1-2010_LargeOffice.",
          "Loading OpenStudio Standards data for 90.1-2010",
          "Loaded space type map from osm file: ../../../data/geometry/ASHRAELargeOffice.osm",
          "Started applying space types (loads)",
          "Office OfficeLarge Data Center had no lights, one has been created.",
          "Office OfficeLarge Data Center set LPD to 0.9 W/ft^2.",
          "Office OfficeLarge Data Center had no electric equipment, one has been created.",
          "Office OfficeLarge Data Center set electric EPD to 20.0 W/ft^2.",
          "Office OfficeLarge Data Center had no ventilation specification, one has been created.",
          "Office OfficeLarge Data Center set lighting schedule to OfficeLarge BLDG_LIGHT_SCH_2010.",
          "Office OfficeLarge Data Center set electric equipment schedule to DataCenter_EQUIP_SCH.",
          "Office OfficeLarge Data Center set heating setpoint schedule to OfficeLarge HTGSETP_DC_SCH.",
          "Office OfficeLarge Data Center set cooling setpoint schedule to OfficeLarge CLGSETP_DC_SCH.",
          "Office OfficeLarge Main Data Center had no lights, one has been created.",
          "Office OfficeLarge Main Data Center set LPD to 0.9 W/ft^2.",
          "Office OfficeLarge Main Data Center had no electric equipment, one has been created.",
          "Office OfficeLarge Main Data Center set electric EPD to 45.0 W/ft^2.",
          "Office OfficeLarge Main Data Center had no ventilation specification, one has been created.",
          "Office OfficeLarge Main Data Center set lighting schedule to OfficeLarge BLDG_LIGHT_SCH_2010.",
          "Office OfficeLarge Main Data Center set electric equipment schedule to DataCenter_EQUIP_SCH.",
          "Office OfficeLarge Main Data Center set heating setpoint schedule to OfficeLarge HTGSETP_DC_SCH.",
          "Office OfficeLarge Main Data Center set cooling setpoint schedule to OfficeLarge CLGSETP_DC_SCH.",
          "Office WholeBuilding - Lg Office had no people, one has been created.",
          "Office WholeBuilding - Lg Office set occupancy to 5.0 people/1000 ft^2.",
          "Office WholeBuilding - Lg Office had no lights, one has been created.",
          "Office WholeBuilding - Lg Office set LPD to 0.9 W/ft^2.",
          "Office WholeBuilding - Lg Office had no electric equipment, one has been created.",
          "Office WholeBuilding - Lg Office set electric EPD to 0.74973447 W/ft^2.",
          "Office WholeBuilding - Lg Office had no ventilation specification, one has been created.",
          "Office WholeBuilding - Lg Office set ventilation per area to 0.085 cfm/ft^2.",
          "Office WholeBuilding - Lg Office had no infiltration objects, one has been created.",
          "Office WholeBuilding - Lg Office set infiltration to 0.0 per ft^2 exterior surface area.",
          "Office WholeBuilding - Lg Office set occupancy schedule to OfficeLarge BLDG_OCC_SCH.",
          "Office WholeBuilding - Lg Office set occupant activity schedule to OfficeLarge ACTIVITY_SCH.",
          "Office WholeBuilding - Lg Office set lighting schedule to OfficeLarge BLDG_LIGHT_SCH.",
          "Office WholeBuilding - Lg Office set electric equipment schedule to OfficeLarge BLDG_EQUIP_SCH.",
          "Office WholeBuilding - Lg Office set infiltration schedule to OfficeLarge INFIL_SCH_PNNL.",
          "Office WholeBuilding - Lg Office set heating setpoint schedule to OfficeLarge HTGSETP_SCH_YES_OPTIMUM.",
          "Office WholeBuilding - Lg Office set cooling setpoint schedule to OfficeLarge CLGSETP_SCH_NO_SETBACK.",
          "Finished applying space types (loads)",
          "For Basement, no exterior wall area was found, no infiltration will be added.",
          "For Core_bottom, no exterior wall area was found, no infiltration will be added.",
          "For Core_mid, no exterior wall area was found, no infiltration will be added.",
          "For Core_top, no exterior wall area was found, no infiltration will be added.",
          "For GroundFloor_Plenum, set infiltration rate to 0.112 cfm/ft2 exterior wall area (aka 1.0 cfm/ft2 @75Pa).",
          "For MidFloor_Plenum, set infiltration rate to 0.112 cfm/ft2 exterior wall area (aka 1.0 cfm/ft2 @75Pa).",
          "For Perimeter_bot_ZN_1, set infiltration rate to 0.112 cfm/ft2 exterior wall area (aka 1.0 cfm/ft2 @75Pa).",
          "For Perimeter_bot_ZN_2, set infiltration rate to 0.112 cfm/ft2 exterior wall area (aka 1.0 cfm/ft2 @75Pa).",
          "For Perimeter_bot_ZN_3, set infiltration rate to 0.112 cfm/ft2 exterior wall area (aka 1.0 cfm/ft2 @75Pa).",
          "For Perimeter_bot_ZN_4, set infiltration rate to 0.112 cfm/ft2 exterior wall area (aka 1.0 cfm/ft2 @75Pa).",
          "For Perimeter_mid_ZN_1, set infiltration rate to 0.112 cfm/ft2 exterior wall area (aka 1.0 cfm/ft2 @75Pa).",
          "For Perimeter_mid_ZN_2, set infiltration rate to 0.112 cfm/ft2 exterior wall area (aka 1.0 cfm/ft2 @75Pa).",
          "For Perimeter_mid_ZN_3, set infiltration rate to 0.112 cfm/ft2 exterior wall area (aka 1.0 cfm/ft2 @75Pa).",
          "For Perimeter_mid_ZN_4, set infiltration rate to 0.112 cfm/ft2 exterior wall area (aka 1.0 cfm/ft2 @75Pa).",
          "For Perimeter_top_ZN_1, set infiltration rate to 0.112 cfm/ft2 exterior wall area (aka 1.0 cfm/ft2 @75Pa).",
          "For Perimeter_top_ZN_2, set infiltration rate to 0.112 cfm/ft2 exterior wall area (aka 1.0 cfm/ft2 @75Pa).",
          "For Perimeter_top_ZN_3, set infiltration rate to 0.112 cfm/ft2 exterior wall area (aka 1.0 cfm/ft2 @75Pa).",
          "For Perimeter_top_ZN_4, set infiltration rate to 0.112 cfm/ft2 exterior wall area (aka 1.0 cfm/ft2 @75Pa).",
          "For TopFloor_Plenum, set infiltration rate to 0.112 cfm/ft2 exterior wall area (aka 1.0 cfm/ft2 @75Pa).",
          "Started creating thermal zones",
          "Finished creating thermal zones",
          "Started adding weather file for climate zone: ASHRAE 169-2013-2A.",
          "Added Tampa-MacDill.AFB_FL_USA Ann Clg .4% Condns DB=>MWB design day.",
          "Added Tampa-MacDill.AFB_FL_USA Ann Htg 99.6% Condns DB design day.",
          "Started Adding HVAC",
          "Adding hot water loop.",
          "Adding condenser water loop.",
          "Using the 90.1-2010 G3.1.3.11 approach temperature sizing methodology for condenser loop Condenser Water Loop.",
          "The maximum design wet bulb temperature from the Summer Design Day WB=>MDB is 80.95999999999991 F",
          "For condenser loop Condenser Water Loop, design OATwb = 80.0 F, approach = 5.0 deltaF, range = 10.0 deltaF, leaving condenser water temperature = 85.0 F.",
          "Adding chilled water loop.",
          "Adding VAV system for 5 zones.",
          "For VAV_bot WITH REHEAT: VAV damper action was set to Dual Maximum control.",
          "Adding VAV system for 5 zones.",
          "For VAV_mid WITH REHEAT: VAV damper action was set to Dual Maximum control.",
          "Adding VAV system for 5 zones.",
          "For VAV_top WITH REHEAT: VAV damper action was set to Dual Maximum control.",
          "Adding CAV for 1 zones.",
          "For CAV_bas: VAV damper action was set to Dual Maximum control.",
          "Adding heat pump loop.",
          "Adding data center HVAC for DataCenter_basement_ZN_6 ZN.",
          "Adding data center HVAC for DataCenter_bot_ZN_6 ZN.",
          "Adding data center HVAC for DataCenter_mid_ZN_6 ZN.",
          "Adding data center HVAC for DataCenter_top_ZN_6 ZN.",
          "Finished adding HVAC",
          "Started applying constructions",
          "Adding construction set: 90.1-2010-ASHRAE 169-2013-2A-LargeOffice--is_residentialNo",
          "Adding construction Typical Insulated Exterior Mass Floor R-9.35.",
          "Adding construction Typical Insulated Exterior Mass Wall R-6.62.",
          "Adding construction Typical IEAD Roof - Highly Reflective R-20.83.",
          "Adding construction Typical Interior Floor.",
          "Adding construction Typical Interior Wall.",
          "Adding construction Typical Interior Ceiling.",
          "Adding construction Typical Insulated Carpeted 6in Slab Floor.",
          "Adding construction Typical Insulated Basement Mass Wall.",
          "Adding construction U 0.72 SHGC 0.25 Sgl Ref-B-M Tint 6mm.",
          "Adding construction Typical Insulated Metal Door R-1.43.",
          "Adding construction U 0.88 SHGC 0.16 Sgl Ref-A-L Clr 6mm.",
          "Adding construction Typical Overhead Door R-0.86.",
          "Adding construction U 1.98 SHGC 0.36 Sgl Ref-B-H Clr 6mm.",
          "Adding construction Typical Interior Window.",
          "Adding construction Typical Interior Door.",
          "Adding construction Typical Interior Partition.",
          "Construction set for template =90.1-2010, climate zone set =ClimateZone 2, building type = Office, space type = OfficeLarge Data Center, is residential = No was not found in standards_data",
          "Construction set for template =90.1-2010, climate zone set =ClimateZone 2, building type = Office, space type = OfficeLarge Main Data Center, is residential = No was not found in standards_data",
          "Construction set for template =90.1-2010, climate zone set =ClimateZone 2, building type = Office, space type = WholeBuilding - Lg Office, is residential = No was not found in standards_data",
          "Adding construction set: 90.1-2010-ASHRAE 169-2013-2A-LargeOffice-Plenum-is_residentialNo",
          "Adding construction Plenum Acoustical Tile.",
          "Finished applying constructions",
          "Added internal mass 'DataCenter_bot_ZN_6 Mass' to space 'DataCenter_bot_ZN_6'.",
          "Added internal mass 'Perimeter_bot_ZN_4 Mass' to space 'Perimeter_bot_ZN_4'.",
          "Added internal mass 'Perimeter_bot_ZN_2 Mass' to space 'Perimeter_bot_ZN_2'.",
          "Added internal mass 'DataCenter_basement_ZN_6 Mass' to space 'DataCenter_basement_ZN_6'.",
          "Added internal mass 'Perimeter_top_ZN_4 Mass' to space 'Perimeter_top_ZN_4'.",
          "Added internal mass 'GroundFloor_Plenum Mass' to space 'GroundFloor_Plenum'.",
          "Added internal mass 'TopFloor_Plenum Mass' to space 'TopFloor_Plenum'.",
          "Added internal mass 'Core_mid Mass' to space 'Core_mid'.",
          "Added internal mass 'Perimeter_bot_ZN_3 Mass' to space 'Perimeter_bot_ZN_3'.",
          "Added internal mass 'Perimeter_bot_ZN_1 Mass' to space 'Perimeter_bot_ZN_1'.",
          "Added internal mass 'DataCenter_mid_ZN_6 Mass' to space 'DataCenter_mid_ZN_6'.",
          "Added internal mass 'Perimeter_mid_ZN_2 Mass' to space 'Perimeter_mid_ZN_2'.",
          "Added internal mass 'Perimeter_mid_ZN_1 Mass' to space 'Perimeter_mid_ZN_1'.",
          "Added internal mass 'MidFloor_Plenum Mass' to space 'MidFloor_Plenum'.",
          "Added internal mass 'DataCenter_top_ZN_6 Mass' to space 'DataCenter_top_ZN_6'.",
          "Added internal mass 'Core_bottom Mass' to space 'Core_bottom'.",
          "Added internal mass 'Basement Mass' to space 'Basement'.",
          "Added internal mass 'Perimeter_top_ZN_3 Mass' to space 'Perimeter_top_ZN_3'.",
          "Added internal mass 'Core_top Mass' to space 'Core_top'.",
          "Added internal mass 'Perimeter_mid_ZN_3 Mass' to space 'Perimeter_mid_ZN_3'.",
          "Added internal mass 'Perimeter_top_ZN_2 Mass' to space 'Perimeter_top_ZN_2'.",
          "Added internal mass 'Perimeter_top_ZN_1 Mass' to space 'Perimeter_top_ZN_1'.",
          "Added internal mass 'Perimeter_mid_ZN_4 Mass' to space 'Perimeter_mid_ZN_4'.",
          "Finished adding internal mass",
          "Started Adding Service Water Heating",
          "Added water heater called 300gal Natural Gas Water Heater - 300kBtu/hr",
          "Added circulating SWH loop called Main Service Water Loop",
          "Adding water fixture to Main Service Water Loop.",
          "Added Core_bottom Service Water Use 0.58gpm at 140F.",
          "Adding water fixture to Main Service Water Loop.",
          "Added Core_mid Service Water Use 0.58gpm at 140F.",
          "Adding water fixture to Main Service Water Loop.",
          "Added Core_top Service Water Use 0.58gpm at 140F.",
          "Finished adding Service Water Heating",
          "Started adding exterior lights",
          "Finished adding exterior lights",
          "Started Adding Occupancy Sensors",
          "Finished Adding Occupancy Sensors",
          "Set Daylight Saving Start Date to 2nd Sunday in March and end date to 1st Sunday in November.",
          "Running simulation /mnt/openstudio/analysis_de910ddf-9641-4d1c-8060-715d502f03f6/data_point_b2efbf05-b16d-43c0-aafa-4844116d944f/run/000_cd977924-f8f2-4519-8756-9ba34ba49714/output/SR1.",
          "does not have an Output Variable attached.",
          "does not have an Output Meter attached.",
          "Finished run.",
          "Started applying multizone vav OA sizing.",
          "For VAV_bot WITH REHEAT: Zone Core_bottom ZN has a ventilation effectiveness of 0.29.  Increasing to 0.6 by increasing minimum damper position from 0.2 to 0.32.",
          "For VAV_bot WITH REHEAT: Zone Perimeter_bot_ZN_3 ZN has a ventilation effectiveness of 0.58.  Increasing to 0.6 by increasing minimum damper position from 0.2 to 0.21.",
          "For VAV_bot WITH REHEAT: the multizone outdoor air calculation method was applied.  A simple summation of the zone outdoor air requirements gives a value of 3227 cfm.  Applying the multizone method gives a value of 11261 cfm, with an original system ventilation effectiveness of 0.29.  After increasing the minimum damper position in 2 critical zones, the resulting requirement is 5378 cfm with a system ventilation effectiveness of 0.6.",
          "For VAV_mid WITH REHEAT: Zone Core_mid ZN has a ventilation effectiveness of 0.18.  Increasing to 0.6 by increasing minimum damper position from 0.2 to 0.35.",
          "For VAV_mid WITH REHEAT: Zone Perimeter_mid_ZN_3 ZN has a ventilation effectiveness of 0.53.  Increasing to 0.6 by increasing minimum damper position from 0.2 to 0.22.",
          "For VAV_mid WITH REHEAT: the multizone outdoor air calculation method was applied.  A simple summation of the zone outdoor air requirements gives a value of 32269 cfm.  Applying the multizone method gives a value of 179800 cfm, with an original system ventilation effectiveness of 0.18.  After increasing the minimum damper position in 2 critical zones, the resulting requirement is 53781 cfm with a system ventilation effectiveness of 0.6.",
          "For VAV_top WITH REHEAT: Zone Core_top ZN has a ventilation effectiveness of 0.19.  Increasing to 0.6 by increasing minimum damper position from 0.2 to 0.35.",
          "For VAV_top WITH REHEAT: Zone Perimeter_top_ZN_3 ZN has a ventilation effectiveness of 0.56.  Increasing to 0.6 by increasing minimum damper position from 0.2 to 0.22.",
          "For VAV_top WITH REHEAT: the multizone outdoor air calculation method was applied.  A simple summation of the zone outdoor air requirements gives a value of 3227 cfm.  Applying the multizone method gives a value of 16895 cfm, with an original system ventilation effectiveness of 0.19.  After increasing the minimum damper position in 2 critical zones, the resulting requirement is 5378 cfm with a system ventilation effectiveness of 0.6.",
          "Finished applying multizone vav OA sizing.",
          "Started applying prototype HVAC assumptions.",
          "For Prototype: CAV_bas Fan: 6954cfm; Pressure Rise = 2.5in w.c.",
          "For Prototype: VAV_bot WITH REHEAT Fan: 23330cfm; Pressure Rise = 5.58in w.c.",
          "For Prototype: VAV_mid WITH REHEAT Fan: 199797cfm; Pressure Rise = 5.58in w.c.",
          "For Prototype: VAV_top WITH REHEAT Fan: 21306cfm; Pressure Rise = 5.58in w.c.",
          "For Prototype: DataCenter_basement_ZN_6 ZN PSZ-AC Data Center Fan: 38166cfm; Pressure Rise = 4.09in w.c.",
          "For Prototype: DataCenter_bot_ZN_6 ZN PSZ-AC Data Center Fan: 885cfm; Pressure Rise = 2.5in w.c.",
          "For Prototype: DataCenter_mid_ZN_6 ZN PSZ-AC Data Center Fan: 7679cfm; Pressure Rise = 4.09in w.c.",
          "For Prototype: DataCenter_top_ZN_6 ZN PSZ-AC Data Center Fan: 775cfm; Pressure Rise = 2.5in w.c.",
          "For CAV_bas Fan: allowed_hp = 4.63HP; motor eff = 89.5%; total fan eff = 58% based on 6954 cfm.",
          "For VAV_bot WITH REHEAT Fan: allowed_hp = 34.66HP; motor eff = 94.1%; total fan eff = 61% based on 23330 cfm.",
          "For VAV_mid WITH REHEAT Fan: allowed_hp = 296.84HP; motor eff = 96.2%; total fan eff = 63% based on 199797 cfm.",
          "For VAV_top WITH REHEAT Fan: allowed_hp = 31.65HP; motor eff = 94.1%; total fan eff = 61% based on 21306 cfm.",
          "For DataCenter_basement_ZN_6 ZN PSZ-AC Data Center Fan: allowed_hp = 41.56HP; motor eff = 94.5%; total fan eff = 61% based on 38166 cfm.",
          "For DataCenter_bot_ZN_6 ZN PSZ-AC Data Center Fan: allowed_hp = 1.01HP; motor eff = 86.5%; total fan eff = 56% based on 885 cfm.",
          "For DataCenter_mid_ZN_6 ZN PSZ-AC Data Center Fan: allowed_hp = 8.36HP; motor eff = 91.7%; total fan eff = 60% based on 7679 cfm.",
          "For DataCenter_top_ZN_6 ZN PSZ-AC Data Center Fan: allowed_hp = 1.01HP; motor eff = 86.5%; total fan eff = 56% based on 775 cfm.",
          "CAV_bas requires an economizer because the total cooling capacity of 357972 Btu/hr exceeds the minimum capacity of 54000 Btu/hr.",
          "VAV_bot WITH REHEAT requires an economizer because the total cooling capacity of 799975 Btu/hr exceeds the minimum capacity of 54000 Btu/hr.",
          "VAV_mid WITH REHEAT requires an economizer because the total cooling capacity of 7171691 Btu/hr exceeds the minimum capacity of 54000 Btu/hr.",
          "VAV_top WITH REHEAT requires an economizer because the total cooling capacity of 749604 Btu/hr exceeds the minimum capacity of 54000 Btu/hr.",
          "Finished applying prototype HVAC assumptions.",
          "Started applying HVAC efficiency standards for 90.1-2010 template.",
          "For CAV_bas, ERV required based on 37% OA flow, design supply air flow of 6954cfm, and climate zone ASHRAE 169-2013-2A. Exceeds minimum flow requirement of 5500.0cfm.",
          "For CAV_bas ERV, ERV power is calculated to be 911 W, based on a min OA flow of 2543 cfm.  This power represents mostly the added fan energy from the extra static pressure, and is active only when the ERV is operating.",
          "For CAV_bas: DCV is not required since the system has Energy Recovery.",
          "For CAV_bas: Availability schedule is already set to OfficeLarge HVACOperationSchd.  Will assume this includes unoccupied shut down; no changes will be made.",
          "For CAV_bas: Because the system has an economizer, it requires a motorized OA damper.",
          "For CAV_bas: Setting motorized OA damper schedule to OfficeLarge HVACOperationSchd.",
          "For CAV_bas: Optimum start is not required since design flow rate of 6954 cfm is below the limit of 10000 cfm.",
          "For CAV_bas: Single zone controls not applicable because no DX cooling.",
          "For DataCenter_basement_ZN_6 ZN PSZ-AC Data Center, ERV not required based on 0% OA flow, design supply air flow of 38166cfm, and climate zone ASHRAE 169-2013-2A.",
          "For DataCenter_basement_ZN_6 ZN PSZ-AC Data Center: DCV is not required since the system min oa flow is 0 cfm, less than the minimum of 3000 cfm.",
          "For DataCenter_basement_ZN_6 ZN PSZ-AC Data Center: DCV is not required since the system does not have an economizer.",
          "For DataCenter_basement_ZN_6 ZN PSZ-AC Data Center: Motorized OA damper not required because the building has 4 stories, less than the minimum of 999 stories for climate zone ASHRAE 169-2013-2A.",
          "For DataCenter_basement_ZN_6 ZN PSZ-AC Data Center: Optimum start is required since design flow rate of 38166 cfm exceeds the limit of 10000 cfm.",
          "For DataCenter_basement_ZN_6 ZN PSZ-AC Data Center: Optimum start control enabled.",
          "For DataCenter_basement_ZN_6 ZN PSZ-AC Data Center: Single zone controls not applicable because no DX cooling.",
          "For DataCenter_bot_ZN_6 ZN PSZ-AC Data Center, ERV not required based on 0% OA flow, design supply air flow of 885cfm, and climate zone ASHRAE 169-2013-2A.",
[...]
          "For CAV_bas ERV: Set sensible and latent effectiveness to 50%.",
          "Finished applying HVAC efficiency standards for 90.1-2010 template.",
          "For VAV_mid WITH REHEAT ERV: Changed sensible and latent effectiveness to ~70% per DOE Prototype assumptions for an enthalpy wheel.",
          "For CAV_bas ERV: Changed sensible and latent effectiveness to ~70% per DOE Prototype assumptions for an enthalpy wheel.",
          "Started adding daylighting controls.",
          "For Basement, daylighting control not applicable because no exterior fenestration is present.",
          "For Core_bottom, daylighting control not applicable because no exterior fenestration is present.",
          "For Core_mid, daylighting control not applicable because no exterior fenestration is present.",
          "For Core_top, daylighting control not applicable because no exterior fenestration is present.",
          "For DataCenter_basement_ZN_6, daylighting control not applicable because no exterior fenestration is present.",
          "For DataCenter_bot_ZN_6, daylighting control not applicable because no exterior fenestration is present.",
          "For DataCenter_mid_ZN_6, daylighting control not applicable because no exterior fenestration is present.",
          "For DataCenter_top_ZN_6, daylighting control not applicable because no exterior fenestration is present.",
          "For GroundFloor_Plenum, daylighting control not applicable because no exterior fenestration is present.",
          "For MidFloor_Plenum, daylighting control not applicable because no exterior fenestration is present.",
          "For Perimeter_bot_ZN_1: illuminance setpoint = 500.0 Lux",
          "For Perimeter_bot_ZN_1: assuming only 68% of the primary sidelit area is daylightable based on typical design practice.",
          "For Perimeter_bot_ZN_1: assuming only 32% of the secondary sidelit area is daylightable based on typical design practice.",
          "For Perimeter_bot_ZN_1: sensor 1 controls 38% of the zone lighting.",
          "For Perimeter_bot_ZN_2: illuminance setpoint = 500.0 Lux",
          "For Perimeter_bot_ZN_2: assuming only 68% of the primary sidelit area is daylightable based on typical design practice.",
          "For Perimeter_bot_ZN_2: assuming only 32% of the secondary sidelit area is daylightable based on typical design practice.",
          "For Perimeter_bot_ZN_2: sensor 1 controls 39% of the zone lighting.",
          "For Perimeter_bot_ZN_3: illuminance setpoint = 500.0 Lux",
          "For Perimeter_bot_ZN_3: assuming only 68% of the primary sidelit area is daylightable based on typical design practice.",
          "For Perimeter_bot_ZN_3: assuming only 32% of the secondary sidelit area is daylightable based on typical design practice.",
          "For Perimeter_bot_ZN_3: sensor 1 controls 38% of the zone lighting.",
          "For Perimeter_bot_ZN_4: illuminance setpoint = 500.0 Lux",
          "For Perimeter_bot_ZN_4: assuming only 68% of the primary sidelit area is daylightable based on typical design practice.",
          "For Perimeter_bot_ZN_4: assuming only 32% of the secondary sidelit area is daylightable based on typical design practice.",
          "For Perimeter_bot_ZN_4: sensor 1 controls 39% of the zone lighting.",
          "For Perimeter_mid_ZN_1: illuminance setpoint = 500.0 Lux",
          "For Perimeter_mid_ZN_1: assuming only 68% of the primary sidelit area is daylightable based on typical design practice.",
          "For Perimeter_mid_ZN_1: assuming only 32% of the secondary sidelit area is daylightable based on typical design practice.",
          "For Perimeter_mid_ZN_1: sensor 1 controls 38% of the zone lighting.",
          "For Perimeter_mid_ZN_2: illuminance setpoint = 500.0 Lux",
          "For Perimeter_mid_ZN_2: assuming only 68% of the primary sidelit area is daylightable based on typical design practice.",
          "For Perimeter_mid_ZN_2: assuming only 32% of the secondary sidelit area is daylightable based on typical design practice.",
          "For Perimeter_mid_ZN_2: sensor 1 controls 39% of the zone lighting.",
          "For Perimeter_mid_ZN_3: illuminance setpoint = 500.0 Lux",
          "For Perimeter_mid_ZN_3: assuming only 68% of the primary sidelit area is daylightable based on typical design practice.",
          "For Perimeter_mid_ZN_3: assuming only 32% of the secondary sidelit area is daylightable based on typical design practice.",
          "For Perimeter_mid_ZN_3: sensor 1 controls 38% of the zone lighting.",
          "For Perimeter_mid_ZN_4: illuminance setpoint = 500.0 Lux",
          "For Perimeter_mid_ZN_4: assuming only 68% of the primary sidelit area is daylightable based on typical design practice.",
          "For Perimeter_mid_ZN_4: assuming only 32% of the secondary sidelit area is daylightable based on typical design practice.",
          "For Perimeter_mid_ZN_4: sensor 1 controls 39% of the zone lighting.",
          "For Perimeter_top_ZN_1: illuminance setpoint = 500.0 Lux",
          "For Perimeter_top_ZN_1: assuming only 68% of the primary sidelit area is daylightable based on typical design practice.",
          "For Perimeter_top_ZN_1: assuming only 32% of the secondary sidelit area is daylightable based on typical design practice.",
          "For Perimeter_top_ZN_1: sensor 1 controls 38% of the zone lighting.",
          "For Perimeter_top_ZN_2: illuminance setpoint = 500.0 Lux",
          "For Perimeter_top_ZN_2: assuming only 68% of the primary sidelit area is daylightable based on typical design practice.",
          "For Perimeter_top_ZN_2: assuming only 32% of the secondary sidelit area is daylightable based on typical design practice.",
          "For Perimeter_top_ZN_2: sensor 1 controls 39% of the zone lighting.",
          "For Perimeter_top_ZN_3: illuminance setpoint = 500.0 Lux",
          "For Perimeter_top_ZN_3: assuming only 68% of the primary sidelit area is daylightable based on typical design practice.",
          "For Perimeter_top_ZN_3: assuming only 32% of the secondary sidelit area is daylightable based on typical design practice.",
          "For Perimeter_top_ZN_3: sensor 1 controls 38% of the zone lighting.",
          "For Perimeter_top_ZN_4: illuminance setpoint = 500.0 Lux",
          "For Perimeter_top_ZN_4: assuming only 68% of the primary sidelit area is daylightable based on typical design practice.",
          "For Perimeter_top_ZN_4: assuming only 32% of the secondary sidelit area is daylightable based on typical design practice.",
          "For Perimeter_top_ZN_4: sensor 1 controls 39% of the zone lighting.",
          "For TopFloor_Plenum, daylighting control not applicable because no exterior fenestration is present.",
          "Finished adding daylighting controls.",
          "Adjusting daylight sensor positions and fractions",
          "For Perimeter_bot_ZN_4 ZN: Adjusting primary daylight sensor to control 0.49 of the lighting.",
          "For Perimeter_bot_ZN_4 ZN: Adjusting primary daylight sensor position to",
          "For Perimeter_bot_ZN_4 ZN: Adjusting secondary daylight sensor to control 0.08 of the lighting.",
          "For Perimeter_bot_ZN_4 ZN: Adjusting secondary daylight sensor position to",
          "For Perimeter_bot_ZN_2 ZN: Adjusting primary daylight sensor to control 0.49 of the lighting.",
          "For Perimeter_bot_ZN_2 ZN: Adjusting primary daylight sensor position to",
          "For Perimeter_bot_ZN_2 ZN: Adjusting secondary daylight sensor to control 0.08 of the lighting.",
          "For Perimeter_bot_ZN_2 ZN: Adjusting secondary daylight sensor position to",
          "For Perimeter_top_ZN_4 ZN: Adjusting primary daylight sensor to control 0.49 of the lighting.",
          "For Perimeter_top_ZN_4 ZN: Adjusting primary daylight sensor position to",
          "For Perimeter_top_ZN_4 ZN: Adjusting secondary daylight sensor to control 0.08 of the lighting.",
          "For Perimeter_top_ZN_4 ZN: Adjusting secondary daylight sensor position to",
          "For Perimeter_bot_ZN_3 ZN: Adjusting primary daylight sensor to control 0.51 of the lighting.",
          "For Perimeter_bot_ZN_3 ZN: Adjusting primary daylight sensor position to",
          "For Perimeter_bot_ZN_3 ZN: Adjusting secondary daylight sensor to control 0.05 of the lighting.",
          "For Perimeter_bot_ZN_3 ZN: Adjusting secondary daylight sensor position to",
          "For Perimeter_bot_ZN_1 ZN: Adjusting primary daylight sensor to control 0.05 of the lighting.",
          "For Perimeter_bot_ZN_1 ZN: Adjusting primary daylight sensor position to",
          "For Perimeter_bot_ZN_1 ZN: Adjusting secondary daylight sensor to control 0.51 of the lighting.",
          "For Perimeter_bot_ZN_1 ZN: Adjusting secondary daylight sensor position to",
          "For Perimeter_mid_ZN_2 ZN: Adjusting primary daylight sensor to control 0.49 of the lighting.",
          "For Perimeter_mid_ZN_2 ZN: Adjusting primary daylight sensor position to",
          "For Perimeter_mid_ZN_2 ZN: Adjusting secondary daylight sensor to control 0.08 of the lighting.",
          "For Perimeter_mid_ZN_2 ZN: Adjusting secondary daylight sensor position to",
          "For Perimeter_mid_ZN_1 ZN: Adjusting primary daylight sensor to control 0.05 of the lighting.",
          "For Perimeter_mid_ZN_1 ZN: Adjusting primary daylight sensor position to",
          "For Perimeter_mid_ZN_1 ZN: Adjusting secondary daylight sensor to control 0.51 of the lighting.",
          "For Perimeter_mid_ZN_1 ZN: Adjusting secondary daylight sensor position to",
          "For Perimeter_top_ZN_3 ZN: Adjusting primary daylight sensor to control 0.51 of the lighting.",
          "For Perimeter_top_ZN_3 ZN: Adjusting primary daylight sensor position to",
          "For Perimeter_top_ZN_3 ZN: Adjusting secondary daylight sensor to control 0.05 of the lighting.",
          "For Perimeter_top_ZN_3 ZN: Adjusting secondary daylight sensor position to",
          "For Perimeter_mid_ZN_3 ZN: Adjusting primary daylight sensor to control 0.51 of the lighting.",
          "For Perimeter_mid_ZN_3 ZN: Adjusting primary daylight sensor position to",
          "For Perimeter_mid_ZN_3 ZN: Adjusting secondary daylight sensor to control 0.05 of the lighting.",
          "For Perimeter_mid_ZN_3 ZN: Adjusting secondary daylight sensor position to",
          "For Perimeter_top_ZN_2 ZN: Adjusting primary daylight sensor to control 0.49 of the lighting.",
          "For Perimeter_top_ZN_2 ZN: Adjusting primary daylight sensor position to",
          "For Perimeter_top_ZN_2 ZN: Adjusting secondary daylight sensor to control 0.08 of the lighting.",
          "For Perimeter_top_ZN_2 ZN: Adjusting secondary daylight sensor position to",
          "For Perimeter_top_ZN_1 ZN: Adjusting primary daylight sensor to control 0.05 of the lighting.",
          "For Perimeter_top_ZN_1 ZN: Adjusting primary daylight sensor position to",
          "For Perimeter_top_ZN_1 ZN: Adjusting secondary daylight sensor to control 0.51 of the lighting.",
          "For Perimeter_top_ZN_1 ZN: Adjusting secondary daylight sensor position to",
          "For Perimeter_mid_ZN_4 ZN: Adjusting primary daylight sensor to control 0.49 of the lighting.",
          "For Perimeter_mid_ZN_4 ZN: Adjusting primary daylight sensor position to",
          "For Perimeter_mid_ZN_4 ZN: Adjusting secondary daylight sensor to control 0.08 of the lighting.",
          "For Perimeter_mid_ZN_4 ZN: Adjusting secondary daylight sensor position to",
          "The model started with 2087 objects and finished with 1998 objects after removing unused resource objects.",
          "Total Time = 29sec."
        ],
        "step_result": "Success",
        "step_values": [
          {
            "name": "building_type",
            "value": "LargeOffice"
          },
          {
            "name": "template",
            "value": "90.1-2010"
          },
          {
            "name": "climate_zone",
            "value": "ASHRAE 169-2013-2A"
          },
          {
            "name": "epw_file",
            "value": "Not Applicable"
          }
        ],
        "step_warnings": [
          "[openstudio.EpwFile] Successive data points (2001-Jan-31 to 1996-Feb-01, ending on line 753) are greater than 1 day apart in EPW file '/var/oscli/gems/ruby/2.5.0/gems/openstudio-standards-0.2.12/data/weather/USA_FL_Tampa-MacDill.AFB.747880_TMY3.epw'. Data will be treated as typical (TMY)",
          "[openstudio.Prototype.hvac_systems] No valid WB=>MDB Summer Design Days were found in the model.  Attempting to load wet bulb sizing from the .ddy file directly.",
          "[openstudio.Prototype.CoolingTower] For condenser loop Condenser Water Loop, reduced design OATwb from 81.0 F to EneryPlus model maximum limit of 80.0 F.",
          "[openstudio.model.AirTerminalSingleDuctVAVReheat] setZoneMinimumAirFlowMethod is deprecated, please use setZoneMinimumAirFlowInputMethod",
          "[openstudio.model.AirTerminalSingleDuctVAVReheat] setZoneMinimumAirFlowMethod is deprecated, please use setZoneMinimumAirFlowInputMethod",
          "[openstudio.model.AirTerminalSingleDuctVAVReheat] setZoneMinimumAirFlowMethod is deprecated, please use setZoneMinimumAirFlowInputMethod",
          "[openstudio.model.AirTerminalSingleDuctVAVReheat] setZoneMinimumAirFlowMethod is deprecated, please use setZoneMinimumAirFlowInputMethod",
          "[openstudio.model.AirTerminalSingleDuctVAVReheat] setZoneMinimumAirFlowMethod is deprecated, please use setZoneMinimumAirFlowInputMethod",
          "[openstudio.model.AirTerminalSingleDuctVAVReheat] setZoneMinimumAirFlowMethod is deprecated, please use setZoneMinimumAirFlowInputMethod",
          "[openstudio.model.AirTerminalSingleDuctVAVReheat] setZoneMinimumAirFlowMethod is deprecated, please use setZoneMinimumAirFlowInputMethod",
          "[openstudio.model.AirTerminalSingleDuctVAVReheat] setZoneMinimumAirFlowMethod is deprecated, please use setZoneMinimumAirFlowInputMethod",
          "[openstudio.model.AirTerminalSingleDuctVAVReheat] setZoneMinimumAirFlowMethod is deprecated, please use setZoneMinimumAirFlowInputMethod",
          "[openstudio.model.AirTerminalSingleDuctVAVReheat] setZoneMinimumAirFlowMethod is deprecated, please use setZoneMinimumAirFlowInputMethod",
          "[openstudio.model.AirTerminalSingleDuctVAVReheat] setZoneMinimumAirFlowMethod is deprecated, please use setZoneMinimumAirFlowInputMethod",
          "[openstudio.model.AirTerminalSingleDuctVAVReheat] setZoneMinimumAirFlowMethod is deprecated, please use setZoneMinimumAirFlowInputMethod",
          "[openstudio.model.AirTerminalSingleDuctVAVReheat] setZoneMinimumAirFlowMethod is deprecated, please use setZoneMinimumAirFlowInputMethod",
          "[openstudio.model.AirTerminalSingleDuctVAVReheat] setZoneMinimumAirFlowMethod is deprecated, please use setZoneMinimumAirFlowInputMethod",
          "[openstudio.model.AirTerminalSingleDuctVAVReheat] setZoneMinimumAirFlowMethod is deprecated, please use setZoneMinimumAirFlowInputMethod",
          "[openstudio.model.AirTerminalSingleDuctVAVReheat] setZoneMinimumAirFlowMethod is deprecated, please use setZoneMinimumAirFlowInputMethod",
          "[openstudio.standards.Construction] Can only set the u-value of opaque constructions or simple glazing. U 0.72 SHGC 0.25 Sgl Ref-B-M Tint 6mm is not opaque or simple glazing.",
          "[openstudio.standards.Construction] Can only set the u-value of opaque constructions or simple glazing. U 0.88 SHGC 0.16 Sgl Ref-A-L Clr 6mm is not opaque or simple glazing.",
          "[openstudio.standards.Construction] Requested U-value of 1.1686635536297982 for Typical Overhead Door is greater than the sum of the inside and outside resistance, and the max U-value (6.636 SI) is used instead.",
          "[openstudio.standards.Construction] Can only set the u-value of opaque constructions or simple glazing. U 1.98 SHGC 0.36 Sgl Ref-B-H Clr 6mm is not opaque or simple glazing.",
          "[openstudio.standards.CoilCoolingWaterToAirHeatPumpEquationFit] For DataCenter_basement_ZN_6 ZN PSZ-AC Data Center Water-to-Air HP Clg Coil, cannot find efficiency info using {\"template\"=>\"90.1-2010\"}, cannot apply efficiency standard.",
          "[openstudio.standards.CoilCoolingWaterToAirHeatPumpEquationFit] For DataCenter_mid_ZN_6 ZN PSZ-AC Data Center Water-to-Air HP Clg Coil, cannot find efficiency info using {\"template\"=>\"90.1-2010\"}, cannot apply efficiency standard.",
          "[openstudio.standards.Model] Find object search criteria returned 2 results, the first one will be returned. Called from /var/oscli/gems/ruby/2.5.0/gems/openstudio-standards-0.2.12/lib/openstudio-standards/standards/Standards.CoolingTower.rb:74:in `cooling_tower_apply_minimum_power_per_flow'. \n Search criteria: \n {\"template\"=>\"90.1-2010\", \"equipment_type\"=>\"Open Cooling Tower\"}, capacity =  \n  All results: \n {\"template\"=>\"90.1-2010\", \"equipment_type\"=>\"Open Cooling Tower\", \"fan_type\"=>\"Centrifugal\", \"start_date\"=>\"1919-09-09T00:00:00+00:00\", \"end_date\"=>\"2999-09-09T00:00:00+00:00\", \"minimum_performance\"=>20.0, \"notes\"=>\"From 90.1-2010 Table 6.8.1 G\"}\n{\"template\"=>\"90.1-2010\", \"equipment_type\"=>\"Open Cooling Tower\", \"fan_type\"=>\"Propeller or Axial\", \"start_date\"=>\"1919-09-09T00:00:00+00:00\", \"end_date\"=>\"2999-09-09T00:00:00+00:00\", \"minimum_performance\"=>38.2, \"notes\"=>\"From 90.1-2010 Table 6.8.1 G\"}"
        ]
      }
    },
    {
      "arguments": {},
      "description": "Add Hyrdonic Output Variables",
      "measure_dir_name": "add_output_variablesfor_hydronic_hvac_systems",
      "name": "Add Hyrdonic Output Variables",
      "result": {
        "completed_at": "20201109T232607Z",
        "measure_class_name": "AddOutputVariablesforHydronicHVACSystems",
        "measure_display_name": "Add Output Variables for Hydronic HVAC Systems",
        "measure_name": "add_output_variablesfor_hydronic_hvac_systems",
        "measure_taxonomy": "Reporting.QAQC",
        "measure_type": "ModelMeasure",
        "measure_uid": "19a04a3e-4d42-437f-812d-54aa04f3d98e",
        "measure_version_id": "061e6dcb-6a11-474d-87f2-bf4217eb7b55",
        "measure_version_modified": "20201026T213416Z",
        "measure_xml_checksum": "5DD9ABF6",
        "started_at": "20201109T232607Z",
        "stderr": "",
        "stdout": "",
        "step_errors": [],
        "step_files": [],
        "step_info": [],
        "step_result": "Success",
        "step_values": [],
        "step_warnings": []
      }
    },
    {
      "arguments": {},
      "description": "Export Time Series Loads",
      "measure_dir_name": "export_time_series_modelica",
      "name": "Export Time Series Loads",
      "result": {
        "completed_at": "20201109T233054Z",
        "measure_class_name": "ExportTimeSeriesLoadsCSV",
        "measure_display_name": "ExportTimeSeriesLoadsCSV",
        "measure_name": "export_time_series_loads_csv",
        "measure_taxonomy": "Reporting.QAQC",
        "measure_type": "ReportingMeasure",
        "measure_uid": "9fcf6116-c2eb-43d6-93f0-e1bdd822f768",
        "measure_version_id": "135bd2a9-0e76-4132-943f-159a53a987e2",
        "measure_version_modified": "20201026T213420Z",
        "measure_xml_checksum": "9BF1E6AC",
        "started_at": "20201109T233053Z",
        "stderr": "",
        "stdout": "",
        "step_errors": [],
        "step_files": [
          "/mnt/openstudio/analysis_de910ddf-9641-4d1c-8060-715d502f03f6/data_point_b2efbf05-b16d-43c0-aafa-4844116d944f/run/002_export_time_series_modelica/building_loads.csv"
        ],
        "step_info": [],
        "step_result": "Success",
        "step_values": [],
        "step_warnings": []
      }
    }
  ],
  "updated_at": "20201109T233059Z",
  "weather_file": "USA_CO_Golden-NREL.724666_TMY3.epw"
}