{
  "completed_at": "20201026T220554Z",
  "completed_status": "Success",
  "created_at": "2020-10-26 16:04:25 -0600",
  "current_step": 3,
  "description": "Autogenerated 1",
  "eplusout_err": "Program Version,EnergyPlus, Version 9.3.0-baff08990c, YMD=2020.10.26 16:05,\n   ************* Beginning Zone Sizing Calculations\n   ** Warning ** ProcessScheduleInput: Schedule:Day:Interval=\"ECONOMIZER MAX OA FRACTION 70 PCT DEFAULT\", Blank Schedule Type Limits Name input -- will not be validated.\n   ** Warning ** ProcessScheduleInput: Schedule:Constant=\"ALWAYS OFF DISCRETE\", Blank Schedule Type Limits Name input -- will not be validated.\n   ** Warning ** ProcessScheduleInput: Schedule:Constant=\"ALWAYS ON CONTINUOUS\", Blank Schedule Type Limits Name input -- will not be validated.\n   ** Warning ** CheckUsedConstructions: There are 10 nominally unused constructions in input.\n   **   ~~~   ** For explicit details on each unused construction, use Output:Diagnostics,DisplayExtraWarnings;\n   ** Warning ** GetInternalHeatGains: People=\"OFFICE WHOLEBUILDING - SM OFFICE PEOPLE\" has comfort related schedules but no thermal comfort model selected.\n   **   ~~~   ** If schedules are specified for air velocity, clothing insulation, and/or work efficiency but no thermal comfort\n   **   ~~~   ** thermal comfort model is selected, the schedules will be listed as unused schedules in the .err file.\n   **   ~~~   ** To avoid these errors, select a valid thermal comfort model or eliminate these schedules in the PEOPLE input.\n   ** Warning ** GetInternalHeatGains: People=\"OFFICE WHOLEBUILDING - SM OFFICE PEOPLE\" has comfort related schedules but no thermal comfort model selected.\n   **   ~~~   ** If schedules are specified for air velocity, clothing insulation, and/or work efficiency but no thermal comfort\n   **   ~~~   ** thermal comfort model is selected, the schedules will be listed as unused schedules in the .err file.\n   **   ~~~   ** To avoid these errors, select a valid thermal comfort model or eliminate these schedules in the PEOPLE input.\n   ** Warning ** GetInternalHeatGains: People=\"OFFICE WHOLEBUILDING - SM OFFICE PEOPLE\" has comfort related schedules but no thermal comfort model selected.\n   **   ~~~   ** If schedules are specified for air velocity, clothing insulation, and/or work efficiency but no thermal comfort\n   **   ~~~   ** thermal comfort model is selected, the schedules will be listed as unused schedules in the .err file.\n   **   ~~~   ** To avoid these errors, select a valid thermal comfort model or eliminate these schedules in the PEOPLE input.\n   ** Warning ** GetInternalHeatGains: People=\"OFFICE WHOLEBUILDING - SM OFFICE PEOPLE\" has comfort related schedules but no thermal comfort model selected.\n   **   ~~~   ** If schedules are specified for air velocity, clothing insulation, and/or work efficiency but no thermal comfort\n   **   ~~~   ** thermal comfort model is selected, the schedules will be listed as unused schedules in the .err file.\n   **   ~~~   ** To avoid these errors, select a valid thermal comfort model or eliminate these schedules in the PEOPLE input.\n   ** Warning ** GetInternalHeatGains: People=\"OFFICE WHOLEBUILDING - SM OFFICE PEOPLE\" has comfort related schedules but no thermal comfort model selected.\n   **   ~~~   ** If schedules are specified for air velocity, clothing insulation, and/or work efficiency but no thermal comfort\n   **   ~~~   ** thermal comfort model is selected, the schedules will be listed as unused schedules in the .err file.\n   **   ~~~   ** To avoid these errors, select a valid thermal comfort model or eliminate these schedules in the PEOPLE input.\n   ** Warning ** GetDaylightingControls: Fraction of Zone controlled by the Daylighting reference points is < 1.0.\n   **   ~~~   ** ..discovered in \"Daylighting:Controls\" for Zone=\"PERIMETER_ZN_1 ZN\", only 0.12 of the zone is controlled.\n   ** Warning ** GetDaylightingControls: Fraction of Zone controlled by the Daylighting reference points is < 1.0.\n   **   ~~~   ** ..discovered in \"Daylighting:Controls\" for Zone=\"PERIMETER_ZN_2 ZN\", only 0.21 of the zone is controlled.\n   ** Warning ** GetDaylightingControls: Fraction of Zone controlled by the Daylighting reference points is < 1.0.\n   **   ~~~   ** ..discovered in \"Daylighting:Controls\" for Zone=\"PERIMETER_ZN_3 ZN\", only 0.12 of the zone is controlled.\n   ** Warning ** GetDaylightingControls: Fraction of Zone controlled by the Daylighting reference points is < 1.0.\n   **   ~~~   ** ..discovered in \"Daylighting:Controls\" for Zone=\"PERIMETER_ZN_4 ZN\", only 0.21 of the zone is controlled.\n   ************* Beginning System Sizing Calculations\n   ************* Beginning Plant Sizing Calculations\n   ** Warning ** GetOAControllerInputs: Controller:MechanicalVentilation=\"CONTROLLER MECHANICAL VENTILATION 5\n   **   ~~~   ** Cannot locate a matching DesignSpecification:ZoneAirDistribution object for Zone=\"CORE_ZN ZN\".\n   **   ~~~   ** Using default zone air distribution effectiveness of 1.0 for heating and cooling.\n   ** Warning ** GetOAControllerInputs: Controller:MechanicalVentilation=\"CONTROLLER MECHANICAL VENTILATION 1\n   **   ~~~   ** Cannot locate a matching DesignSpecification:ZoneAirDistribution object for Zone=\"PERIMETER_ZN_1 ZN\".\n   **   ~~~   ** Using default zone air distribution effectiveness of 1.0 for heating and cooling.\n   ** Warning ** GetOAControllerInputs: Controller:MechanicalVentilation=\"CONTROLLER MECHANICAL VENTILATION 2\n   **   ~~~   ** Cannot locate a matching DesignSpecification:ZoneAirDistribution object for Zone=\"PERIMETER_ZN_2 ZN\".\n   **   ~~~   ** Using default zone air distribution effectiveness of 1.0 for heating and cooling.\n   ** Warning ** GetOAControllerInputs: Controller:MechanicalVentilation=\"CONTROLLER MECHANICAL VENTILATION 3\n   **   ~~~   ** Cannot locate a matching DesignSpecification:ZoneAirDistribution object for Zone=\"PERIMETER_ZN_3 ZN\".\n   **   ~~~   ** Using default zone air distribution effectiveness of 1.0 for heating and cooling.\n   ** Warning ** GetOAControllerInputs: Controller:MechanicalVentilation=\"CONTROLLER MECHANICAL VENTILATION 4\n   **   ~~~   ** Cannot locate a matching DesignSpecification:ZoneAirDistribution object for Zone=\"PERIMETER_ZN_4 ZN\".\n   **   ~~~   ** Using default zone air distribution effectiveness of 1.0 for heating and cooling.\n   ** Warning ** GetDXCoils: Coil:Heating:DX:SingleSpeed=\"CORE_ZN ZN HP HTG COIL 22 CLG KBTU/HR 7.7HSPF\", invalid\n   **   ~~~   ** ...Part Load Fraction Correlation Curve Name = DXHEAT-NECB2011-REF-PLFFPLR has out of range value.\n   **   ~~~   ** ...Curve maximum must be <= 1.0, curve max at PLR = 0.99 is 1.005\n   **   ~~~   ** ...Setting curve maximum to 1.0 and simulation continues.\n   ** Warning ** GetDXCoils: Coil:Heating:DX:SingleSpeed=\"CORE_ZN ZN HP HTG COIL 22 CLG KBTU/HR 7.7HSPF\" curve values\n   **   ~~~   ** ... Defrost Energy Input Ratio Function of Temperature Curve Name = CORE_ZN ZN HP HTG COIL DEFROST EIR FUNC OF TEMP CURVE 1 output is not equal to 1.0 (+ or - 10%) at rated conditions.\n   **   ~~~   ** ... Curve output at rated conditions = 0.787\n   ** Warning ** GetDXCoils: Coil:Heating:DX:SingleSpeed=\"PERIMETER_ZN_1 ZN HP HTG COIL 24 CLG KBTU/HR 7.7HSPF\" curve values\n   **   ~~~   ** ... Defrost Energy Input Ratio Function of Temperature Curve Name = PERIMETER_ZN_1 ZN HP HTG COIL DEFROST EIR FUNC OF TEMP CURVE 1 output is not equal to 1.0 (+ or - 10%) at rated conditions.\n   **   ~~~   ** ... Curve output at rated conditions = 0.787\n   ** Warning ** GetDXCoils: Coil:Heating:DX:SingleSpeed=\"PERIMETER_ZN_2 ZN HP HTG COIL 20 CLG KBTU/HR 7.7HSPF\" curve values\n   **   ~~~   ** ... Defrost Energy Input Ratio Function of Temperature Curve Name = PERIMETER_ZN_2 ZN HP HTG COIL DEFROST EIR FUNC OF TEMP CURVE 1 output is not equal to 1.0 (+ or - 10%) at rated conditions.\n   **   ~~~   ** ... Curve output at rated conditions = 0.787\n   ** Warning ** GetDXCoils: Coil:Heating:DX:SingleSpeed=\"PERIMETER_ZN_3 ZN HP HTG COIL 23 CLG KBTU/HR 7.7HSPF\" curve values\n   **   ~~~   ** ... Defrost Energy Input Ratio Function of Temperature Curve Name = PERIMETER_ZN_3 ZN HP HTG COIL DEFROST EIR FUNC OF TEMP CURVE 1 output is not equal to 1.0 (+ or - 10%) at rated conditions.\n   **   ~~~   ** ... Curve output at rated conditions = 0.787\n   ** Warning ** GetDXCoils: Coil:Heating:DX:SingleSpeed=\"PERIMETER_ZN_4 ZN HP HTG COIL 22 CLG KBTU/HR 7.7HSPF\" curve values\n   **   ~~~   ** ... Defrost Energy Input Ratio Function of Temperature Curve Name = PERIMETER_ZN_4 ZN HP HTG COIL DEFROST EIR FUNC OF TEMP CURVE 1 output is not equal to 1.0 (+ or - 10%) at rated conditions.\n   **   ~~~   ** ... Curve output at rated conditions = 0.787\n   ** Warning ** The Standard Ratings is calculated for Coil:Cooling:DX:SingleSpeed = CORE_ZN ZN PSZ-AC-1 1SPD DX HP CLG COIL 22KBTU/HR 13.0SEER but not at the AHRI test condition due to curve out of bound.\n   **   ~~~   **  Review the Standard Ratings calculations in the Engineering Reference for this coil type. Also, use Output:Diagnostics, DisplayExtraWarnings for further guidance.\n   ** Warning ** The Standard Ratings is calculated for Coil:Cooling:DX:SingleSpeed = PERIMETER_ZN_1 ZN PSZ-AC-2 1SPD DX HP CLG COIL 24KBTU/HR 13.0SEER but not at the AHRI test condition due to curve out of bound.\n   **   ~~~   **  Review the Standard Ratings calculations in the Engineering Reference for this coil type. Also, use Output:Diagnostics, DisplayExtraWarnings for further guidance.\n   ** Warning ** The Standard Ratings is calculated for Coil:Cooling:DX:SingleSpeed = PERIMETER_ZN_2 ZN PSZ-AC-3 1SPD DX HP CLG COIL 20KBTU/HR 13.0SEER but not at the AHRI test condition due to curve out of bound.\n   **   ~~~   **  Review the Standard Ratings calculations in the Engineering Reference for this coil type. Also, use Output:Diagnostics, DisplayExtraWarnings for further guidance.\n   ** Warning ** The Standard Ratings is calculated for Coil:Cooling:DX:SingleSpeed = PERIMETER_ZN_3 ZN PSZ-AC-4 1SPD DX HP CLG COIL 23KBTU/HR 13.0SEER but not at the AHRI test condition due to curve out of bound.\n   **   ~~~   **  Review the Standard Ratings calculations in the Engineering Reference for this coil type. Also, use Output:Diagnostics, DisplayExtraWarnings for further guidance.\n   ** Warning ** The Standard Ratings is calculated for Coil:Cooling:DX:SingleSpeed = PERIMETER_ZN_4 ZN PSZ-AC-5 1SPD DX HP CLG COIL 22KBTU/HR 13.0SEER but not at the AHRI test condition due to curve out of bound.\n   **   ~~~   **  Review the Standard Ratings calculations in the Engineering Reference for this coil type. Also, use Output:Diagnostics, DisplayExtraWarnings for further guidance.\n   ** Warning ** Check input. Pump nominal power or motor efficiency is set to 0, for pump=MAIN SERVICE WATER LOOP WATER MAINS PRESSURE DRIVEN\n   ** Warning ** Output:Meter: invalid Key Name=\"DISTRICTCOOLING:FACILITY\" - not found.\n   ** Warning ** Output:Meter: invalid Key Name=\"DISTRICTHEATING:FACILITY\" - not found.\n   ** Warning ** Output:Meter:MeterFileOnly requested for \"Electricity:Facility\" (TimeStep), already on \"Output:Meter\". Will report to both eplusout.eso and eplusout.mtr\n   ************* Testing Individual Branch Integrity\n   ************* All Branches passed integrity testing\n   ************* Testing Individual Supply Air Path Integrity\n   ************* All Supply Air Paths passed integrity testing\n   ************* Testing Individual Return Air Path Integrity\n   ************* All Return Air Paths passed integrity testing\n   ************* No node connection errors were found.\n   ************* Beginning Simulation\n   ** Warning ** Processing Monthly Tabular Reports: Variable names not valid for this simulation\n   **   ~~~   ** ...use Output:Diagnostics,DisplayExtraWarnings; to show more details on individual variables.\n   ** Warning ** The resource referenced by LifeCycleCost:UsePriceEscalation= \"U.S. AVG  COMMERCIAL-ELECTRICITY\" has no energy cost. \n   **   ~~~   ** ... It is likely that the wrong resource is used. The resource should match the meter used in Utility:Tariff.\n   ** Warning ** The resource referenced by LifeCycleCost:UsePriceEscalation= \"U.S. AVG  COMMERCIAL-DISTILLATE OIL\" has no energy cost. \n   **   ~~~   ** ... It is likely that the wrong resource is used. The resource should match the meter used in Utility:Tariff.\n   ** Warning ** The resource referenced by LifeCycleCost:UsePriceEscalation= \"U.S. AVG  COMMERCIAL-RESIDUAL OIL\" has no energy cost. \n   **   ~~~   ** ... It is likely that the wrong resource is used. The resource should match the meter used in Utility:Tariff.\n   ** Warning ** The resource referenced by LifeCycleCost:UsePriceEscalation= \"U.S. AVG  COMMERCIAL-NATURAL GAS\" has no energy cost. \n   **   ~~~   ** ... It is likely that the wrong resource is used. The resource should match the meter used in Utility:Tariff.\n   ** Warning ** The resource referenced by LifeCycleCost:UsePriceEscalation= \"U.S. AVG  COMMERCIAL-COAL\" has no energy cost. \n   **   ~~~   ** ... It is likely that the wrong resource is used. The resource should match the meter used in Utility:Tariff.\n   ************* Simulation Error Summary *************\n   ************* There are 7 unused schedules in input.\n   ************* There are 7 unused week schedules in input.\n   ************* There are 18 unused day schedules in input.\n   ************* Use Output:Diagnostics,DisplayUnusedSchedules; to see them.\n   *************\n   ************* ===== Final Error Summary =====\n   ************* The following error categories occurred.  Consider correcting or noting.\n   ************* Nominally Unused Constructions\n   ************* ..The nominally unused constructions warning is provided to alert you to potential conditions that can cause\n   ************* ..extra time during simulation. Each construction is calculated by the algorithm indicated in the HeatBalanceAlgorithm\n   ************* ..object. You may remove the constructions indicated (when you use the DisplayExtraWarnings option).\n   *************\n   ************* EnergyPlus Warmup Error Summary. During Warmup: 0 Warning; 0 Severe Errors.\n   ************* EnergyPlus Sizing Error Summary. During Sizing: 13 Warning; 0 Severe Errors.\n   ************* EnergyPlus Completed Successfully-- 39 Warning; 0 Severe Errors; Elapsed Time=00hr 00min 52.34sec\n",
  "file_format_version": "0.0.1",
  "file_paths": [
    "C:/DES/Test/HVAC_Test/temp_data/analysis_fad9f3c8-bc1e-4571-a035-950cbd2d934e/data_point_2ba25f75-b2c5-4978-ab1f-44c6f605bad9/generated_files",
    "../weather",
    "../seeds",
    "../seed",
    "./files",
    "./weather",
    "../../files",
    "../../weather",
    "./"
  ],
  "hash": "9DB0F132",
  "measure_paths": [
    "../measures"
  ],
  "name": "Alternative 2",
  "osa_id": "fad9f3c8-bc1e-4571-a035-950cbd2d934e",
  "osd_id": "2ba25f75-b2c5-4978-ab1f-44c6f605bad9",
  "run_directory": "./run",
  "seed_file": "example_model_misnamed_loop.osm",
  "started_at": "20201026T220430Z",
  "steps": [
    {
      "arguments": {
        "__SKIP__": false,
        "building_type": "SmallOffice",
        "climate_zone": "ASHRAE 169-2013-2A",
        "epw_file": "Not Applicable",
        "template": "90.1-2010"
      },
      "description": "Option 1 Description: Creates the DOE Reference Building Models as starting points for other analyses.",
      "measure_dir_name": "cd977924-f8f2-4519-8756-9ba34ba49714",
      "name": "Option 1 Name",
      "result": {
        "completed_at": "20201026T220459Z",
        "measure_class_name": "CreateDOEPrototypeBuilding",
        "measure_display_name": "Create DOE Prototype Building",
        "measure_name": "create_doe_prototype_building",
        "measure_taxonomy": "Whole Building.Space Types",
        "measure_type": "ModelMeasure",
        "measure_uid": "be90fd0b-a651-467a-bc8d-29d310b0f937",
        "measure_version_id": "5361dd06-8c5e-4292-aad9-e875d55e8637",
        "measure_version_modified": "20201026T220314Z",
        "measure_xml_checksum": "057E8D9D",
        "started_at": "20201026T220434Z",
        "stderr": "",
        "stdout": "[openstudio.model.YearDescription] <1> 'UseWeatherFile' is not yet a supported option for YearDescription\n[openstudio.model.YearDescription] <1> 'UseWeatherFile' is not yet a supported option for YearDescription\n",
        "step_errors": [],
        "step_files": [],
        "step_info": [
          "Using OpenStudio Standards version 0.2.11 with template 90.1-2010_SmallOffice.",
          "Loading OpenStudio Standards data for 90.1-2010",
          "Loaded space type map from osm file: ../../../data/geometry/ASHRAESmallOffice.osm",
          "Started applying space types (loads)",
          "Office Attic had no ventilation specification, one has been created.",
          "Office Attic had no infiltration objects, one has been created.",
          "Office Attic set infiltration to 0.0 per ft^2 exterior surface area.",
          "Office Attic set infiltration schedule to OfficeLarge INFIL_SCH_PNNL.",
          "Office WholeBuilding - Sm Office had no people, one has been created.",
          "Office WholeBuilding - Sm Office set occupancy to 5.6 people/1000 ft^2.",
          "Office WholeBuilding - Sm Office had no lights, one has been created.",
          "Office WholeBuilding - Sm Office set LPD to 0.9 W/ft^2.",
          "Office WholeBuilding - Sm Office had no electric equipment, one has been created.",
          "Office WholeBuilding - Sm Office set electric EPD to 0.63 W/ft^2.",
          "Office WholeBuilding - Sm Office had no ventilation specification, one has been created.",
          "Office WholeBuilding - Sm Office set ventilation per area to 0.085 cfm/ft^2.",
          "Office WholeBuilding - Sm Office had no infiltration objects, one has been created.",
          "Office WholeBuilding - Sm Office set infiltration to 0.0 per ft^2 exterior surface area.",
          "Office WholeBuilding - Sm Office set occupancy schedule to OfficeSmall BLDG_OCC_SCH.",
          "Office WholeBuilding - Sm Office set occupant activity schedule to OfficeSmall ACTIVITY_SCH.",
          "Office WholeBuilding - Sm Office set lighting schedule to OfficeSmall BLDG_LIGHT_SCH_2010.",
          "Office WholeBuilding - Sm Office set electric equipment schedule to OfficeSmall BLDG_EQUIP_SCH_2010.",
          "Office WholeBuilding - Sm Office set infiltration schedule to OfficeSmall INFIL_QUARTER_ON_SCH.",
          "Office WholeBuilding - Sm Office set heating setpoint schedule to OfficeSmall HTGSETP_SCH_NO_OPTIMUM.",
          "Office WholeBuilding - Sm Office set cooling setpoint schedule to OfficeSmall CLGSETP_SCH_NO_OPTIMUM.",
          "Finished applying space types (loads)",
          "For Attic, no exterior wall area was found, no infiltration will be added.",
          "For Core_ZN, no exterior wall area was found, no infiltration will be added.",
          "For Perimeter_ZN_1, set infiltration rate to 0.112 cfm/ft2 exterior wall area (aka 1.0 cfm/ft2 @75Pa).",
          "For Perimeter_ZN_2, set infiltration rate to 0.112 cfm/ft2 exterior wall area (aka 1.0 cfm/ft2 @75Pa).",
          "For Perimeter_ZN_3, set infiltration rate to 0.112 cfm/ft2 exterior wall area (aka 1.0 cfm/ft2 @75Pa).",
          "For Perimeter_ZN_4, set infiltration rate to 0.112 cfm/ft2 exterior wall area (aka 1.0 cfm/ft2 @75Pa).",
          "Started creating thermal zones",
          "Finished creating thermal zones",
          "Started Adding HVAC",
          "Adding PSZ-AC for Perimeter_ZN_1 ZN.",
          "Adding PSZ-AC for Perimeter_ZN_2 ZN.",
          "Adding PSZ-AC for Perimeter_ZN_3 ZN.",
          "Adding PSZ-AC for Perimeter_ZN_4 ZN.",
          "Adding PSZ-AC for Core_ZN ZN.",
          "Finished adding HVAC",
          "Started applying constructions",
          "Adding construction set: 90.1-2010-ASHRAE 169-2013-2A-SmallOffice--is_residentialNo",
          "Adding construction Typical Insulated Exterior Mass Floor R-11.49.",
          "Adding construction Typical Insulated Wood Framed Exterior Wall R-11.24.",
          "Adding construction Typical Wood Joist Attic Floor R-37.04.",
          "Adding construction Typical Interior Floor.",
          "Adding construction Typical Interior Wall.",
          "Adding construction Typical Interior Ceiling.",
          "Adding construction Typical Insulated Carpeted 6in Slab Floor.",
          "Adding construction Typical Insulated Basement Mass Wall.",
          "Adding construction U 0.72 SHGC 0.25 Sgl Ref-B-M Tint 6mm.",
          "Adding construction Typical Insulated Metal Door R-1.43.",
          "Adding construction U 0.88 SHGC 0.16 Sgl Ref-A-L Clr 6mm.",
          "Adding construction Typical Overhead Door R-0.86.",
          "Adding construction U 1.98 SHGC 0.36 Sgl Ref-B-H Clr 6mm.",
          "Adding construction Typical Interior Window.",
          "Adding construction Typical Interior Door.",
          "Adding construction Typical Interior Partition.",
          "Adding construction set: 90.1-2010-ASHRAE 169-2013-2A--Attic-is_residentialNo",
          "Adding construction Typical Attic Soffit.",
          "Adding construction Typical Uninsulated Wood Joist Attic Roof.",
          "Adding construction Typical Wood Joist Attic Floor R-37.04 1.",
          "Construction set for template =90.1-2010, climate zone set =ClimateZone 2, building type = Office, space type = WholeBuilding - Sm Office, is residential = No was not found in standards_data",
          "Finished applying constructions",
          "Added door infiltration",
          "Added attic infiltration",
          "Added internal mass 'Perimeter_ZN_1 Mass' to space 'Perimeter_ZN_1'.",
          "Added internal mass 'Attic Mass' to space 'Attic'.",
          "Added internal mass 'Perimeter_ZN_2 Mass' to space 'Perimeter_ZN_2'.",
          "Added internal mass 'Perimeter_ZN_3 Mass' to space 'Perimeter_ZN_3'.",
          "Added internal mass 'Perimeter_ZN_4 Mass' to space 'Perimeter_ZN_4'.",
          "Added internal mass 'Core_ZN Mass' to space 'Core_ZN'.",
          "Finished adding internal mass",
          "Started Adding Service Water Heating",
          "Added water heater called 40gal Electricity Water Heater - 40kBtu/hr",
          "Added non-circulating SWH loop called Main Service Water Loop",
          "Adding water fixture to Main Service Water Loop.",
          "Added Main Service Water Use 0.06gpm at 140F.",
          "Finished adding Service Water Heating",
          "Started adding exterior lights",
          "Finished adding exterior lights",
          "Started Adding Occupancy Sensors",
          "Finished Adding Occupancy Sensors",
          "Started adding weather file for climate zone: ASHRAE 169-2013-2A.",
          "Added Tampa-MacDill.AFB_FL_USA Ann Clg .4% Condns DB=>MWB design day.",
          "Added Tampa-MacDill.AFB_FL_USA Ann Htg 99.6% Condns DB design day.",
          "Set Daylight Saving Start Date to 2nd Sunday in March and end date to 1st Sunday in November.",
          "Running simulation C:/DES/Test/HVAC_Test/temp_data/analysis_fad9f3c8-bc1e-4571-a035-950cbd2d934e/data_point_2ba25f75-b2c5-4978-ab1f-44c6f605bad9/run/000_cd977924-f8f2-4519-8756-9ba34ba49714/output/SR1.",
          "Finished run.",
          "Started applying multizone vav OA sizing.",
          "Finished applying multizone vav OA sizing.",
          "Started applying prototype HVAC assumptions.",
          "For Prototype: Core_ZN ZN PSZ-AC-1 Fan: 570cfm; Pressure Rise = 2.5in w.c.",
          "For Prototype: Perimeter_ZN_1 ZN PSZ-AC-2 Fan: 691cfm; Pressure Rise = 2.5in w.c.",
          "For Prototype: Perimeter_ZN_2 ZN PSZ-AC-3 Fan: 688cfm; Pressure Rise = 2.5in w.c.",
          "For Prototype: Perimeter_ZN_3 ZN PSZ-AC-4 Fan: 665cfm; Pressure Rise = 2.5in w.c.",
          "For Prototype: Perimeter_ZN_4 ZN PSZ-AC-5 Fan: 752cfm; Pressure Rise = 2.5in w.c.",
          "For Core_ZN ZN PSZ-AC-1 Fan: allowed_hp = 1.01HP; motor eff = 86.5%; total fan eff = 56% based on 570 cfm.",
          "For Perimeter_ZN_1 ZN PSZ-AC-2 Fan: allowed_hp = 1.01HP; motor eff = 86.5%; total fan eff = 56% based on 691 cfm.",
          "For Perimeter_ZN_2 ZN PSZ-AC-3 Fan: allowed_hp = 1.01HP; motor eff = 86.5%; total fan eff = 56% based on 688 cfm.",
          "For Perimeter_ZN_3 ZN PSZ-AC-4 Fan: allowed_hp = 1.01HP; motor eff = 86.5%; total fan eff = 56% based on 665 cfm.",
          "For Perimeter_ZN_4 ZN PSZ-AC-5 Fan: allowed_hp = 1.01HP; motor eff = 86.5%; total fan eff = 56% based on 752 cfm.",
          "Core_ZN ZN PSZ-AC-1 does not require an economizer because the total cooling capacity of 22039 Btu/hr is less than the minimum capacity of 54000 Btu/hr.",
          "Perimeter_ZN_1 ZN PSZ-AC-2 does not require an economizer because the total cooling capacity of 23570 Btu/hr is less than the minimum capacity of 54000 Btu/hr.",
          "Perimeter_ZN_2 ZN PSZ-AC-3 does not require an economizer because the total cooling capacity of 20175 Btu/hr is less than the minimum capacity of 54000 Btu/hr.",
          "Perimeter_ZN_3 ZN PSZ-AC-4 does not require an economizer because the total cooling capacity of 22908 Btu/hr is less than the minimum capacity of 54000 Btu/hr.",
          "Perimeter_ZN_4 ZN PSZ-AC-5 does not require an economizer because the total cooling capacity of 22267 Btu/hr is less than the minimum capacity of 54000 Btu/hr.",
          "Finished applying prototype HVAC assumptions.",
          "Started applying HVAC efficiency standards for 90.1-2010 template.",
          "For Core_ZN ZN PSZ-AC-1, ERV not required based on 24% OA flow, design supply air flow of 570cfm, and climate zone ASHRAE 169-2013-2A.",
          "For Core_ZN ZN PSZ-AC-1: DCV is not required since the system min oa flow is 137 cfm, less than the minimum of 3000 cfm.",
          "For Core_ZN ZN PSZ-AC-1: DCV is not required since the system does not have an economizer.",
          "For Core_ZN ZN PSZ-AC-1: Availability schedule is already set to OfficeSmall HVACOperationSchd.  Will assume this includes unoccupied shut down; no changes will be made.",
          "For Core_ZN ZN PSZ-AC-1: Motorized OA damper not required because the building has 1 stories, less than the minimum of 999 stories for climate zone ASHRAE 169-2013-2A.",
          "For Core_ZN ZN: DCV is not required since the occupant density is 6 people/1000 ft2, but the minimum occupant density is 40 people/1000 ft2.",
          "For Core_ZN ZN PSZ-AC-1: Optimum start is not required since design flow rate of 570 cfm is below the limit of 10000 cfm.",
          "For Core_ZN ZN PSZ-AC-1: two-stage control is not required since cooling capacity of 22039 Btu/hr is less than the minimum of 65000 Btu/hr .",
          "For Core_ZN ZN PSZ-AC-1: No supply fan found, cannot apply DX fan/economizer control.",
          "For Perimeter_ZN_1 ZN PSZ-AC-2, ERV not required based on 15% OA flow, design supply air flow of 691cfm, and climate zone ASHRAE 169-2013-2A.",
          "For Perimeter_ZN_1 ZN PSZ-AC-2: DCV is not required since the system min oa flow is 104 cfm, less than the minimum of 3000 cfm.",
          "For Perimeter_ZN_1 ZN PSZ-AC-2: DCV is not required since the system does not have an economizer.",
          "For Perimeter_ZN_1 ZN PSZ-AC-2: Availability schedule is already set to OfficeSmall HVACOperationSchd.  Will assume this includes unoccupied shut down; no changes will be made.",
          "For Perimeter_ZN_1 ZN PSZ-AC-2: Motorized OA damper not required because the building has 1 stories, less than the minimum of 999 stories for climate zone ASHRAE 169-2013-2A.",
          "For Perimeter_ZN_1 ZN: DCV is not required since the occupant density is 6 people/1000 ft2, but the minimum occupant density is 40 people/1000 ft2.",
          "For Perimeter_ZN_1 ZN PSZ-AC-2: Optimum start is not required since design flow rate of 691 cfm is below the limit of 10000 cfm.",
          "For Perimeter_ZN_1 ZN PSZ-AC-2: two-stage control is not required since cooling capacity of 23570 Btu/hr is less than the minimum of 65000 Btu/hr .",
          "For Perimeter_ZN_1 ZN PSZ-AC-2: No supply fan found, cannot apply DX fan/economizer control.",
          "For Perimeter_ZN_2 ZN PSZ-AC-3, ERV not required based on 9% OA flow, design supply air flow of 688cfm, and climate zone ASHRAE 169-2013-2A.",
          "For Perimeter_ZN_2 ZN PSZ-AC-3: DCV is not required since the system min oa flow is 62 cfm, less than the minimum of 3000 cfm.",
          "For Perimeter_ZN_2 ZN PSZ-AC-3: DCV is not required since the system does not have an economizer.",
          "For Perimeter_ZN_2 ZN PSZ-AC-3: Availability schedule is already set to OfficeSmall HVACOperationSchd.  Will assume this includes unoccupied shut down; no changes will be made.",
          "For Perimeter_ZN_2 ZN PSZ-AC-3: Motorized OA damper not required because the building has 1 stories, less than the minimum of 999 stories for climate zone ASHRAE 169-2013-2A.",
          "For Perimeter_ZN_2 ZN: DCV is not required since the occupant density is 6 people/1000 ft2, but the minimum occupant density is 40 people/1000 ft2.",
          "For Perimeter_ZN_2 ZN PSZ-AC-3: Optimum start is not required since design flow rate of 688 cfm is below the limit of 10000 cfm.",
          "For Perimeter_ZN_2 ZN PSZ-AC-3: two-stage control is not required since cooling capacity of 20175 Btu/hr is less than the minimum of 65000 Btu/hr .",
          "For Perimeter_ZN_2 ZN PSZ-AC-3: No supply fan found, cannot apply DX fan/economizer control.",
          "For Perimeter_ZN_3 ZN PSZ-AC-4, ERV not required based on 16% OA flow, design supply air flow of 665cfm, and climate zone ASHRAE 169-2013-2A.",
          "For Perimeter_ZN_3 ZN PSZ-AC-4: DCV is not required since the system min oa flow is 104 cfm, less than the minimum of 3000 cfm.",
          "For Perimeter_ZN_3 ZN PSZ-AC-4: DCV is not required since the system does not have an economizer.",
          "For Perimeter_ZN_3 ZN PSZ-AC-4: Availability schedule is already set to OfficeSmall HVACOperationSchd.  Will assume this includes unoccupied shut down; no changes will be made.",
          "For Perimeter_ZN_3 ZN PSZ-AC-4: Motorized OA damper not required because the building has 1 stories, less than the minimum of 999 stories for climate zone ASHRAE 169-2013-2A.",
          "For Perimeter_ZN_3 ZN: DCV is not required since the occupant density is 6 people/1000 ft2, but the minimum occupant density is 40 people/1000 ft2.",
          "For Perimeter_ZN_3 ZN PSZ-AC-4: Optimum start is not required since design flow rate of 665 cfm is below the limit of 10000 cfm.",
          "For Perimeter_ZN_3 ZN PSZ-AC-4: two-stage control is not required since cooling capacity of 22908 Btu/hr is less than the minimum of 65000 Btu/hr .",
          "For Perimeter_ZN_3 ZN PSZ-AC-4: No supply fan found, cannot apply DX fan/economizer control.",
          "For Perimeter_ZN_4 ZN PSZ-AC-5, ERV not required based on 8% OA flow, design supply air flow of 752cfm, and climate zone ASHRAE 169-2013-2A.",
          "For Perimeter_ZN_4 ZN PSZ-AC-5: DCV is not required since the system min oa flow is 62 cfm, less than the minimum of 3000 cfm.",
          "For Perimeter_ZN_4 ZN PSZ-AC-5: DCV is not required since the system does not have an economizer.",
          "For Perimeter_ZN_4 ZN PSZ-AC-5: Availability schedule is already set to OfficeSmall HVACOperationSchd.  Will assume this includes unoccupied shut down; no changes will be made.",
          "For Perimeter_ZN_4 ZN PSZ-AC-5: Motorized OA damper not required because the building has 1 stories, less than the minimum of 999 stories for climate zone ASHRAE 169-2013-2A.",
          "For Perimeter_ZN_4 ZN: DCV is not required since the occupant density is 6 people/1000 ft2, but the minimum occupant density is 40 people/1000 ft2.",
          "For Perimeter_ZN_4 ZN PSZ-AC-5: Optimum start is not required since design flow rate of 752 cfm is below the limit of 10000 cfm.",
          "For Perimeter_ZN_4 ZN PSZ-AC-5: two-stage control is not required since cooling capacity of 22267 Btu/hr is less than the minimum of 65000 Btu/hr .",
          "For Perimeter_ZN_4 ZN PSZ-AC-5: No supply fan found, cannot apply DX fan/economizer control.",
          "For Core_ZN ZN PSZ-AC-1 Fan: motor nameplate = 1.0HP, motor eff = 85.5%.",
          "For Perimeter_ZN_1 ZN PSZ-AC-2 Fan: motor nameplate = 1.0HP, motor eff = 85.5%.",
          "For Perimeter_ZN_2 ZN PSZ-AC-3 Fan: motor nameplate = 1.0HP, motor eff = 85.5%.",
          "For Perimeter_ZN_3 ZN PSZ-AC-4 Fan: motor nameplate = 1.0HP, motor eff = 85.5%.",
          "For Perimeter_ZN_4 ZN PSZ-AC-5 Fan: motor nameplate = 1.0HP, motor eff = 85.5%.",
          "For Main Service Water Loop Water Mains Pressure Driven: brake hp = 0.0HP, motor nameplate = 1.0HP, motor eff = 85.5%.",
          "For 90.1-2010: Core_ZN ZN HP Htg Coil:  Single Package Cooling Capacity = 22kBtu/hr; HSPF = 7.7",
          "For 90.1-2010: Perimeter_ZN_1 ZN HP Htg Coil:  Single Package Cooling Capacity = 24kBtu/hr; HSPF = 7.7",
          "For 90.1-2010: Perimeter_ZN_2 ZN HP Htg Coil:  Single Package Cooling Capacity = 20kBtu/hr; HSPF = 7.7",
          "For 90.1-2010: Perimeter_ZN_3 ZN HP Htg Coil:  Single Package Cooling Capacity = 23kBtu/hr; HSPF = 7.7",
          "For 90.1-2010: Perimeter_ZN_4 ZN HP Htg Coil:  Single Package Cooling Capacity = 22kBtu/hr; HSPF = 7.7",
          "For 90.1-2010: Core_ZN ZN PSZ-AC-1 1spd DX HP Clg Coil: AirCooled Electric Resistance or None Single Package Capacity = 22kBtu/hr; SEER = 13.0",
          "For 90.1-2010: Perimeter_ZN_1 ZN PSZ-AC-2 1spd DX HP Clg Coil: AirCooled Electric Resistance or None Single Package Capacity = 24kBtu/hr; SEER = 13.0",
          "For 90.1-2010: Perimeter_ZN_2 ZN PSZ-AC-3 1spd DX HP Clg Coil: AirCooled Electric Resistance or None Single Package Capacity = 20kBtu/hr; SEER = 13.0",
          "For 90.1-2010: Perimeter_ZN_3 ZN PSZ-AC-4 1spd DX HP Clg Coil: AirCooled Electric Resistance or None Single Package Capacity = 23kBtu/hr; SEER = 13.0",
          "For 90.1-2010: Perimeter_ZN_4 ZN PSZ-AC-5 1spd DX HP Clg Coil: AirCooled Electric Resistance or None Single Package Capacity = 22kBtu/hr; SEER = 13.0",
          "For 90.1-2010: 40gal Electricity Water Heater - 40kBtu/hr 1.0 Therm Eff; thermal efficiency = 1.0, skin-loss UA = 2Btu/hr",
          "Finished applying HVAC efficiency standards.",
          "Started adding daylighting controls.",
          "For Attic, daylighting control not applicable because no exterior fenestration is present.",
          "For Core_ZN, daylighting control not applicable because no exterior fenestration is present.",
          "For Perimeter_ZN_1: illuminance setpoint = 500.0 Lux",
          "For Perimeter_ZN_1: assuming only 0% of the primary sidelit area is daylightable based on typical design practice.",
          "For Perimeter_ZN_1: assuming only 0% of the secondary sidelit area is daylightable based on typical design practice.",
          "For Perimeter_ZN_2: illuminance setpoint = 500.0 Lux",
          "For Perimeter_ZN_2: assuming only 0% of the primary sidelit area is daylightable based on typical design practice.",
          "For Perimeter_ZN_2: assuming only 0% of the secondary sidelit area is daylightable based on typical design practice.",
          "For Perimeter_ZN_3: illuminance setpoint = 500.0 Lux",
          "For Perimeter_ZN_3: assuming only 0% of the primary sidelit area is daylightable based on typical design practice.",
          "For Perimeter_ZN_3: assuming only 0% of the secondary sidelit area is daylightable based on typical design practice.",
          "For Perimeter_ZN_4: illuminance setpoint = 500.0 Lux",
          "For Perimeter_ZN_4: assuming only 0% of the primary sidelit area is daylightable based on typical design practice.",
          "For Perimeter_ZN_4: assuming only 0% of the secondary sidelit area is daylightable based on typical design practice.",
          "Finished adding daylighting controls.",
          "Adjusting daylight sensor positions and fractions",
          "For Perimeter_ZN_1 ZN: Adjusting primary daylight sensor to control 0.02 of the lighting.",
          "For Perimeter_ZN_1 ZN: Adjusting primary daylight sensor position to",
          "For Perimeter_ZN_1 ZN: Adjusting secondary daylight sensor to control 0.1 of the lighting.",
          "For Perimeter_ZN_1 ZN: Adjusting secondary daylight sensor position to",
          "For Perimeter_ZN_2 ZN: Adjusting primary daylight sensor to control 0.06 of the lighting.",
          "For Perimeter_ZN_2 ZN: Adjusting primary daylight sensor position to",
          "For Perimeter_ZN_2 ZN: Adjusting secondary daylight sensor to control 0.15 of the lighting.",
          "For Perimeter_ZN_2 ZN: Adjusting secondary daylight sensor position to",
          "For Perimeter_ZN_3 ZN: Adjusting primary daylight sensor to control 0.1 of the lighting.",
          "For Perimeter_ZN_3 ZN: Adjusting primary daylight sensor position to",
          "For Perimeter_ZN_3 ZN: Adjusting secondary daylight sensor to control 0.02 of the lighting.",
          "For Perimeter_ZN_3 ZN: Adjusting secondary daylight sensor position to",
          "For Perimeter_ZN_4 ZN: Adjusting primary daylight sensor to control 0.06 of the lighting.",
          "For Perimeter_ZN_4 ZN: Adjusting primary daylight sensor position to",
          "For Perimeter_ZN_4 ZN: Adjusting secondary daylight sensor to control 0.15 of the lighting.",
          "For Perimeter_ZN_4 ZN: Adjusting secondary daylight sensor position to",
          "The model started with 862 objects and finished with 719 objects after removing unused resource objects.",
          "Total Time = 25sec."
        ],
        "step_result": "Success",
        "step_values": [
          {
            "name": "building_type",
            "value": "SmallOffice"
          },
          {
            "name": "template",
            "value": "90.1-2010"
          },
          {
            "name": "climate_zone",
            "value": "ASHRAE 169-2013-2A"
          },
          {
            "name": "epw_file",
            "value": "Not Applicable"
          }
        ],
        "step_warnings": [
          "[openstudio.standards.Construction] Can only set the u-value of opaque constructions or simple glazing. U 0.72 SHGC 0.25 Sgl Ref-B-M Tint 6mm is not opaque or simple glazing.",
          "[openstudio.standards.Construction] Can only set the u-value of opaque constructions or simple glazing. U 0.88 SHGC 0.16 Sgl Ref-A-L Clr 6mm is not opaque or simple glazing.",
          "[openstudio.standards.Construction] Requested U-value of 1.1686635536297982 for Typical Overhead Door is greater than the sum of the inside and outside resistance, and the max U-value (6.636 SI) is used instead.",
          "[openstudio.standards.Construction] Can only set the u-value of opaque constructions or simple glazing. U 1.98 SHGC 0.36 Sgl Ref-B-H Clr 6mm is not opaque or simple glazing.",
          "[openstudio.EpwFile] Successive data points (2001-Jan-31 to 1996-Feb-01, ending on line 753) are greater than 1 day apart in EPW file 'C:/DES/Test/HVAC_Test/temp_data/analysis_fad9f3c8-bc1e-4571-a035-950cbd2d934e/data_point_2ba25f75-b2c5-4978-ab1f-44c6f605bad9/run/000_cd977924-f8f2-4519-8756-9ba34ba49714/extracted_files/weather/USA_FL_Tampa-MacDill.AFB.747880_TMY3.epw'. Data will be treated as typical (TMY)"
        ]
      }
    },
    {
      "arguments": {
        "__SKIP__": true
      },
      "description": "This measure adds output variables for temperature and mass flow rate at the demand inlet node for hydronic HVAC loops. This measure can be used to generate a time series for modeling a building load attached to a district thermal energy system.",
      "measure_dir_name": "add_output_variablesfor_hydronic_hvac_systems",
      "name": "add_output_variablesfor_hydronic_hvac_systems",
      "result": {
        "completed_at": "20201026T220459Z",
        "measure_class_name": "AddOutputVariablesforHydronicHVACSystems",
        "measure_display_name": "Add Output Variables for Hydronic HVAC Systems",
        "measure_name": "add_output_variablesfor_hydronic_hvac_systems",
        "measure_taxonomy": "Reporting.QAQC",
        "measure_type": "ModelMeasure",
        "measure_uid": "19a04a3e-4d42-437f-812d-54aa04f3d98e",
        "measure_version_id": "061e6dcb-6a11-474d-87f2-bf4217eb7b55",
        "measure_version_modified": "20201026T213416Z",
        "measure_xml_checksum": "5DD9ABF6",
        "started_at": "20201026T220459Z",
        "stderr": "",
        "stdout": "",
        "step_errors": [],
        "step_files": [],
        "step_info": [],
        "step_result": "Skip",
        "step_values": [],
        "step_warnings": []
      }
    },
    {
      "arguments": {
        "__SKIP__": true
      },
      "description": "This measure will create a CSV file with plant loop level mass flow rates and temperatures for use in a Modelica simulation. Note that this measure has certain\n\t requirements for naming of hydronic loops (discussed in the modeler description section) and requires that certain output variables be present in the model. These\n\t output variables can be added with the Add Output Variables for Hydronic HVAC Systems measure.",
      "measure_dir_name": "export_time_series_modelica",
      "name": "export_time_series_loads_csv",
      "result": {
        "completed_at": "20201026T220552Z",
        "measure_class_name": "ExportTimeSeriesLoadsCSV",
        "measure_display_name": "ExportTimeSeriesLoadsCSV",
        "measure_name": "export_time_series_loads_csv",
        "measure_taxonomy": "Reporting.QAQC",
        "measure_type": "ReportingMeasure",
        "measure_uid": "9fcf6116-c2eb-43d6-93f0-e1bdd822f768",
        "measure_version_id": "135bd2a9-0e76-4132-943f-159a53a987e2",
        "measure_version_modified": "20201026T213420Z",
        "measure_xml_checksum": "9BF1E6AC",
        "started_at": "20201026T220552Z",
        "stderr": "",
        "stdout": "",
        "step_errors": [],
        "step_files": [],
        "step_info": [],
        "step_result": "Skip",
        "step_values": [],
        "step_warnings": []
      }
    }
  ],
  "updated_at": "20201026T220554Z",
  "weather_file": "USA_CO_Golden-NREL.724666_TMY3.epw"
}