Program Version,EnergyPlus, Version 9.3.0-baff08990c, YMD=2020.09.28 15:47
! This file shows details about the branches, nodes, and other
! elements of the flow connections.
! This file is intended for use in "debugging" potential problems
! that may also be detected by the program, but may be more easily
! identified by "eye".
! This file is also intended to support software which draws a
! schematic diagram of the HVAC system.
! ===============================================================
! #Nodes,<Number of Unique Nodes>
 #Nodes,256
! <Node>,<NodeNumber>,<Node Name>,<Node Fluid Type>,<# Times Node Referenced After Definition>
 Node,1,NODE 73,Air,4
 Node,2,NODE 74,Air,2
 Node,3,NODE 111,Air,4
 Node,4,NODE 112,Air,2
 Node,5,NODE 144,Air,4
 Node,6,NODE 145,Air,2
 Node,7,NODE 39,Air,4
 Node,8,NODE 49,Air,2
 Node,9,NODE 80,Air,4
 Node,10,NODE 92,Air,2
 Node,11,NODE 58,Air,4
 Node,12,NODE 59,Air,2
 Node,13,NODE 53,Air,4
 Node,14,NODE 54,Air,2
 Node,15,NODE 63,Air,4
 Node,16,NODE 64,Air,2
 Node,17,NODE 68,Air,4
 Node,18,NODE 69,Air,2
 Node,19,NODE 106,Air,4
 Node,20,NODE 107,Air,2
 Node,21,NODE 101,Air,4
 Node,22,NODE 102,Air,2
 Node,23,NODE 116,Air,4
 Node,24,NODE 117,Air,2
 Node,25,NODE 96,Air,4
 Node,26,NODE 97,Air,2
 Node,27,NODE 159,Air,4
 Node,28,NODE 160,Air,2
 Node,29,NODE 154,Air,4
 Node,30,NODE 155,Air,2
 Node,31,NODE 149,Air,4
 Node,32,NODE 150,Air,2
 Node,33,NODE 139,Air,4
 Node,34,NODE 140,Air,2
 Node,35,NODE 123,Air,4
 Node,36,NODE 135,Air,2
 Node,37,NODE 36,Air,10
 Node,38,NODE 37,Air,3
 Node,39,NODE 77,Air,10
 Node,40,NODE 78,Air,3
 Node,41,NODE 120,Air,10
 Node,42,NODE 121,Air,3
 Node,43,NODE 35,Air,3
 Node,44,NODE 46,Air,5
 Node,45,NODE 45,Air,5
 Node,46,NODE 44,Air,8
 Node,47,NODE 76,Air,3
 Node,48,NODE 89,Air,5
 Node,49,NODE 88,Air,5
 Node,50,NODE 87,Air,8
 Node,51,NODE 119,Air,3
 Node,52,NODE 132,Air,5
 Node,53,NODE 131,Air,5
 Node,54,NODE 130,Air,8
 Node,55,NODE 12,Water,2
 Node,56,NODE 18,Water,1
 Node,57,NODE 14,Water,1
 Node,58,NODE 19,Water,1
 Node,59,NODE 20,Water,1
 Node,60,NODE 21,Water,1
 Node,61,NODE 22,Water,1
 Node,62,NODE 13,Water,4
 Node,63,NODE 15,Water,2
 Node,64,CHILLED WATER LOOP FOR VAV WITH REHEAT DEMAND INLET PIPE NODE,Water,1
 Node,65,NODE 17,Water,2
 Node,66,NODE 41,Water,1
 Node,67,NODE 83,Water,2
 Node,68,NODE 84,Water,1
 Node,69,NODE 126,Water,2
 Node,70,NODE 127,Water,1
 Node,71,CHILLED WATER LOOP FOR VAV WITH REHEAT DEMAND BYPASS PIPE INLET NODE,Water,1
 Node,72,CHILLED WATER LOOP FOR VAV WITH REHEAT DEMAND BYPASS PIPE OUTLET NODE,Water,1
 Node,73,CHILLED WATER LOOP FOR VAV WITH REHEAT DEMAND OUTLET PIPE NODE,Water,1
 Node,74,NODE 16,Water,2
 Node,75,NODE 23,Water,2
 Node,76,NODE 29,Water,1
 Node,77,NODE 25,Water,1
 Node,78,NODE 30,Water,1
 Node,79,NODE 31,Water,1
 Node,80,NODE 32,Water,1
 Node,81,NODE 33,Water,1
 Node,82,NODE 24,Water,4
 Node,83,NODE 26,Water,2
 Node,84,CONDENSER WATER LOOP FOR VAV WITH REHEAT DEMAND INLET PIPE NODE,Water,1
 Node,85,NODE 28,Water,1
 Node,86,NODE 34,Water,1
 Node,87,CONDENSER WATER LOOP FOR VAV WITH REHEAT DEMAND BYPASS PIPE INLET NODE,Water,1
 Node,88,CONDENSER WATER LOOP FOR VAV WITH REHEAT DEMAND BYPASS PIPE OUTLET NODE,Water,1
 Node,89,CONDENSER WATER LOOP FOR VAV WITH REHEAT DEMAND OUTLET PIPE NODE,Water,1
 Node,90,NODE 27,Water,2
 Node,91,NODE 1,Water,2
 Node,92,NODE 7,Water,1
 Node,93,NODE 3,Water,1
 Node,94,NODE 8,Water,1
 Node,95,NODE 9,Water,1
 Node,96,NODE 10,Water,1
 Node,97,NODE 11,Water,1
 Node,98,NODE 2,Water,4
 Node,99,NODE 4,Water,2
 Node,100,HOT WATER LOOP FOR VAV WITH REHEAT DEMAND INLET PIPE NODE,Water,1
 Node,101,NODE 6,Water,2
 Node,102,NODE 40,Water,1
 Node,103,NODE 47,Water,1
 Node,104,NODE 48,Water,1
 Node,105,NODE 51,Water,1
 Node,106,NODE 52,Water,1
 Node,107,NODE 56,Water,1
 Node,108,NODE 57,Water,1
 Node,109,NODE 61,Water,1
 Node,110,NODE 62,Water,1
 Node,111,NODE 66,Water,1
 Node,112,NODE 67,Water,1
 Node,113,NODE 71,Water,1
 Node,114,NODE 72,Water,1
 Node,115,NODE 81,Water,2
 Node,116,NODE 82,Water,1
 Node,117,NODE 90,Water,1
 Node,118,NODE 91,Water,1
 Node,119,NODE 94,Water,1
 Node,120,NODE 95,Water,1
 Node,121,NODE 99,Water,1
 Node,122,NODE 100,Water,1
 Node,123,NODE 104,Water,1
 Node,124,NODE 105,Water,1
 Node,125,NODE 109,Water,1
 Node,126,NODE 110,Water,1
 Node,127,NODE 114,Water,1
 Node,128,NODE 115,Water,1
 Node,129,NODE 124,Water,2
 Node,130,NODE 125,Water,1
 Node,131,NODE 133,Water,1
 Node,132,NODE 134,Water,1
 Node,133,NODE 137,Water,1
 Node,134,NODE 138,Water,1
 Node,135,NODE 142,Water,1
 Node,136,NODE 143,Water,1
 Node,137,NODE 147,Water,1
 Node,138,NODE 148,Water,1
 Node,139,NODE 152,Water,1
 Node,140,NODE 153,Water,1
 Node,141,NODE 157,Water,1
 Node,142,NODE 158,Water,1
 Node,143,HOT WATER LOOP FOR VAV WITH REHEAT DEMAND BYPASS PIPE INLET NODE,Water,1
 Node,144,HOT WATER LOOP FOR VAV WITH REHEAT DEMAND BYPASS PIPE OUTLET NODE,Water,1
 Node,145,HOT WATER LOOP FOR VAV WITH REHEAT DEMAND OUTLET PIPE NODE,Water,1
 Node,146,NODE 5,Water,2
 Node,147,MAIN SERVICE WATER LOOP SUPPLY INLET NODE,Water,2
 Node,148,MAIN SERVICE WATER LOOP CIRCULATOR PUMP OUTLET WATER NODE,Water,1
 Node,149,100GAL NATURAL GAS WATER HEATER - 100KBTU/HR 0.808 THERM EFF SUPPLY INLET WATER NODE,Water,1
 Node,150,100GAL NATURAL GAS WATER HEATER - 100KBTU/HR 0.808 THERM EFF SUPPLY OUTLET WATER NODE,Water,1
 Node,151,PIPE ADIABATIC 1 INLET WATER NODE,Water,1
 Node,152,PIPE ADIABATIC 1 OUTLET WATER NODE,Water,1
 Node,153,PIPE ADIABATIC 3 INLET WATER NODE,Water,1
 Node,154,MAIN SERVICE WATER LOOP SUPPLY OUTLET NODE,Water,4
 Node,155,MAIN SERVICE WATER LOOP DEMAND INLET NODE,Water,2
 Node,156,MAIN SERVICE WATER LOOP DEMAND INLET PIPE NODE,Water,1
 Node,157,PIPE ADIABATIC 2 INLET WATER NODE,Water,1
 Node,158,PIPE ADIABATIC 2 OUTLET WATER NODE,Water,1
 Node,159,WATER USE CONNECTIONS 1 INLET WATER NODE,Water,1
 Node,160,WATER USE CONNECTIONS 1 OUTLET WATER NODE,Water,1
 Node,161,WATER USE CONNECTIONS 2 INLET WATER NODE,Water,1
 Node,162,WATER USE CONNECTIONS 2 OUTLET WATER NODE,Water,1
 Node,163,WATER USE CONNECTIONS 3 INLET WATER NODE,Water,1
 Node,164,WATER USE CONNECTIONS 3 OUTLET WATER NODE,Water,1
 Node,165,WATER USE CONNECTIONS 4 INLET WATER NODE,Water,1
 Node,166,WATER USE CONNECTIONS 4 OUTLET WATER NODE,Water,1
 Node,167,WATER USE CONNECTIONS 5 INLET WATER NODE,Water,1
 Node,168,WATER USE CONNECTIONS 5 OUTLET WATER NODE,Water,1
 Node,169,WATER USE CONNECTIONS 6 INLET WATER NODE,Water,1
 Node,170,WATER USE CONNECTIONS 6 OUTLET WATER NODE,Water,1
 Node,171,WATER USE CONNECTIONS 7 INLET WATER NODE,Water,1
 Node,172,WATER USE CONNECTIONS 7 OUTLET WATER NODE,Water,1
 Node,173,WATER USE CONNECTIONS 8 INLET WATER NODE,Water,1
 Node,174,WATER USE CONNECTIONS 8 OUTLET WATER NODE,Water,1
 Node,175,WATER USE CONNECTIONS 9 INLET WATER NODE,Water,1
 Node,176,WATER USE CONNECTIONS 9 OUTLET WATER NODE,Water,1
 Node,177,WATER USE CONNECTIONS 10 INLET WATER NODE,Water,1
 Node,178,WATER USE CONNECTIONS 10 OUTLET WATER NODE,Water,1
 Node,179,WATER USE CONNECTIONS 11 INLET WATER NODE,Water,1
 Node,180,WATER USE CONNECTIONS 11 OUTLET WATER NODE,Water,1
 Node,181,WATER USE CONNECTIONS 12 INLET WATER NODE,Water,1
 Node,182,WATER USE CONNECTIONS 12 OUTLET WATER NODE,Water,1
 Node,183,WATER USE CONNECTIONS 13 INLET WATER NODE,Water,1
 Node,184,WATER USE CONNECTIONS 13 OUTLET WATER NODE,Water,1
 Node,185,WATER USE CONNECTIONS 14 INLET WATER NODE,Water,1
 Node,186,WATER USE CONNECTIONS 14 OUTLET WATER NODE,Water,1
 Node,187,WATER USE CONNECTIONS 15 INLET WATER NODE,Water,1
 Node,188,WATER USE CONNECTIONS 15 OUTLET WATER NODE,Water,1
 Node,189,MAIN SERVICE WATER LOOP DEMAND BYPASS PIPE INLET NODE,Water,1
 Node,190,MAIN SERVICE WATER LOOP DEMAND BYPASS PIPE OUTLET NODE,Water,1
 Node,191,PIPE ADIABATIC 4 INLET WATER NODE,Water,1
 Node,192,MAIN SERVICE WATER LOOP DEMAND OUTLET NODE,Water,2
 Node,193,CORE_BOTTOM ZN ZONE AIR NODE,Air,0
 Node,194,CORE_MID ZN ZONE AIR NODE,Air,0
 Node,195,CORE_TOP ZN ZONE AIR NODE,Air,0
 Node,196,FIRSTFLOOR_PLENUM ZN ZONE AIR NODE,Air,0
 Node,197,MIDFLOOR_PLENUM ZN ZONE AIR NODE,Air,0
 Node,198,PERIMETER_BOT_ZN_1 ZN ZONE AIR NODE,Air,0
 Node,199,PERIMETER_BOT_ZN_2 ZN ZONE AIR NODE,Air,0
 Node,200,PERIMETER_BOT_ZN_3 ZN ZONE AIR NODE,Air,0
 Node,201,PERIMETER_BOT_ZN_4 ZN ZONE AIR NODE,Air,0
 Node,202,PERIMETER_MID_ZN_1 ZN ZONE AIR NODE,Air,0
 Node,203,PERIMETER_MID_ZN_2 ZN ZONE AIR NODE,Air,0
 Node,204,PERIMETER_MID_ZN_3 ZN ZONE AIR NODE,Air,0
 Node,205,PERIMETER_MID_ZN_4 ZN ZONE AIR NODE,Air,0
 Node,206,PERIMETER_TOP_ZN_1 ZN ZONE AIR NODE,Air,0
 Node,207,PERIMETER_TOP_ZN_2 ZN ZONE AIR NODE,Air,0
 Node,208,PERIMETER_TOP_ZN_3 ZN ZONE AIR NODE,Air,0
 Node,209,PERIMETER_TOP_ZN_4 ZN ZONE AIR NODE,Air,0
 Node,210,TOPFLOOR_PLENUM ZN ZONE AIR NODE,Air,0
 Node,211,NODE 38,Air,2
 Node,212,NODE 79,Air,2
 Node,213,NODE 122,Air,2
 Node,214,NODE 42,Air,2
 Node,215,NODE 85,Air,2
 Node,216,NODE 128,Air,2
 Node,217,MODEL OUTDOOR AIR NODE,Air,0
 Node,218,NODE 50,Air,1
 Node,219,NODE 55,Air,1
 Node,220,NODE 60,Air,1
 Node,221,NODE 65,Air,1
 Node,222,NODE 70,Air,1
 Node,223,NODE 75,Air,1
 Node,224,NODE 93,Air,1
 Node,225,NODE 98,Air,1
 Node,226,NODE 103,Air,1
 Node,227,NODE 108,Air,1
 Node,228,NODE 113,Air,1
 Node,229,NODE 118,Air,1
 Node,230,NODE 136,Air,1
 Node,231,NODE 141,Air,1
 Node,232,NODE 146,Air,1
 Node,233,NODE 151,Air,1
 Node,234,NODE 156,Air,1
 Node,235,NODE 161,Air,1
 Node,236,AIR TERMINAL SINGLE DUCT VAV REHEAT 6 DAMPER OUTLET,Air,1
 Node,237,AIR TERMINAL SINGLE DUCT VAV REHEAT 11 DAMPER OUTLET,Air,1
 Node,238,AIR TERMINAL SINGLE DUCT VAV REHEAT 15 DAMPER OUTLET,Air,1
 Node,239,AIR TERMINAL SINGLE DUCT VAV REHEAT 1 DAMPER OUTLET,Air,1
 Node,240,AIR TERMINAL SINGLE DUCT VAV REHEAT 7 DAMPER OUTLET,Air,1
 Node,241,AIR TERMINAL SINGLE DUCT VAV REHEAT 3 DAMPER OUTLET,Air,1
 Node,242,AIR TERMINAL SINGLE DUCT VAV REHEAT 2 DAMPER OUTLET,Air,1
 Node,243,AIR TERMINAL SINGLE DUCT VAV REHEAT 4 DAMPER OUTLET,Air,1
 Node,244,AIR TERMINAL SINGLE DUCT VAV REHEAT 5 DAMPER OUTLET,Air,1
 Node,245,AIR TERMINAL SINGLE DUCT VAV REHEAT 10 DAMPER OUTLET,Air,1
 Node,246,AIR TERMINAL SINGLE DUCT VAV REHEAT 9 DAMPER OUTLET,Air,1
 Node,247,AIR TERMINAL SINGLE DUCT VAV REHEAT 12 DAMPER OUTLET,Air,1
 Node,248,AIR TERMINAL SINGLE DUCT VAV REHEAT 8 DAMPER OUTLET,Air,1
 Node,249,AIR TERMINAL SINGLE DUCT VAV REHEAT 18 DAMPER OUTLET,Air,1
 Node,250,AIR TERMINAL SINGLE DUCT VAV REHEAT 17 DAMPER OUTLET,Air,1
 Node,251,AIR TERMINAL SINGLE DUCT VAV REHEAT 16 DAMPER OUTLET,Air,1
 Node,252,AIR TERMINAL SINGLE DUCT VAV REHEAT 14 DAMPER OUTLET,Air,1
 Node,253,AIR TERMINAL SINGLE DUCT VAV REHEAT 13 DAMPER OUTLET,Air,1
 Node,254,NODE 43,Air,1
 Node,255,NODE 86,Air,1
 Node,256,NODE 129,Air,1
! ===============================================================
! Suspicious nodes have 0 references.  It is normal for some nodes, however.
! Listing nodes with 0 references (culled from previous list):
! <Suspicious Node>,<NodeNumber>,<Node Name>,<Node Fluid Type>,<# Times Node Referenced After Definition>
 Suspicious Node,193,CORE_BOTTOM ZN ZONE AIR NODE,Air,0
 Suspicious Node,194,CORE_MID ZN ZONE AIR NODE,Air,0
 Suspicious Node,195,CORE_TOP ZN ZONE AIR NODE,Air,0
 Suspicious Node,196,FIRSTFLOOR_PLENUM ZN ZONE AIR NODE,Air,0
 Suspicious Node,197,MIDFLOOR_PLENUM ZN ZONE AIR NODE,Air,0
 Suspicious Node,198,PERIMETER_BOT_ZN_1 ZN ZONE AIR NODE,Air,0
 Suspicious Node,199,PERIMETER_BOT_ZN_2 ZN ZONE AIR NODE,Air,0
 Suspicious Node,200,PERIMETER_BOT_ZN_3 ZN ZONE AIR NODE,Air,0
 Suspicious Node,201,PERIMETER_BOT_ZN_4 ZN ZONE AIR NODE,Air,0
 Suspicious Node,202,PERIMETER_MID_ZN_1 ZN ZONE AIR NODE,Air,0
 Suspicious Node,203,PERIMETER_MID_ZN_2 ZN ZONE AIR NODE,Air,0
 Suspicious Node,204,PERIMETER_MID_ZN_3 ZN ZONE AIR NODE,Air,0
 Suspicious Node,205,PERIMETER_MID_ZN_4 ZN ZONE AIR NODE,Air,0
 Suspicious Node,206,PERIMETER_TOP_ZN_1 ZN ZONE AIR NODE,Air,0
 Suspicious Node,207,PERIMETER_TOP_ZN_2 ZN ZONE AIR NODE,Air,0
 Suspicious Node,208,PERIMETER_TOP_ZN_3 ZN ZONE AIR NODE,Air,0
 Suspicious Node,209,PERIMETER_TOP_ZN_4 ZN ZONE AIR NODE,Air,0
 Suspicious Node,210,TOPFLOOR_PLENUM ZN ZONE AIR NODE,Air,0
 Suspicious Node,217,MODEL OUTDOOR AIR NODE,Air,0
! ===============================================================
! <#Branch Lists>,<Number of Branch Lists>
 #Branch Lists,11
! <Branch List>,<Branch List Count>,<Branch List Name>,<Loop Name>,<Loop Type>,<Number of Branches>
! <Branch>,<Branch Count>,<Branch Name>,<Loop Name>,<Loop Type>,<Branch Inlet Node Name>,<Branch Outlet Node Name>
 Branch List,1,VAV WITH REHEAT SUPPLY BRANCHES,VAV WITH REHEAT,Air,1
   Branch,1,VAV WITH REHEAT MAIN BRANCH,VAV WITH REHEAT,Air,NODE 35,NODE 36
 Branch List,2,VAV WITH REHEAT 1 SUPPLY BRANCHES,VAV WITH REHEAT 1,Air,1
   Branch,1,VAV WITH REHEAT 1 MAIN BRANCH,VAV WITH REHEAT 1,Air,NODE 76,NODE 77
 Branch List,3,VAV WITH REHEAT 2 SUPPLY BRANCHES,VAV WITH REHEAT 2,Air,1
   Branch,1,VAV WITH REHEAT 2 MAIN BRANCH,VAV WITH REHEAT 2,Air,NODE 119,NODE 120
 Branch List,4,CHILLED WATER LOOP FOR VAV WITH REHEAT SUPPLY BRANCHES,CHILLED WATER LOOP FOR VAV WITH REHEAT,Plant Supply,4
   Branch,1,CHILLED WATER LOOP FOR VAV WITH REHEAT SUPPLY INLET BRANCH,CHILLED WATER LOOP FOR VAV WITH REHEAT,Plant Supply,NODE 12,NODE 18
   Branch,2,CHILLED WATER LOOP FOR VAV WITH REHEAT SUPPLY BRANCH 1,CHILLED WATER LOOP FOR VAV WITH REHEAT,Plant Supply,NODE 14,NODE 19
   Branch,3,CHILLED WATER LOOP FOR VAV WITH REHEAT SUPPLY BRANCH 2,CHILLED WATER LOOP FOR VAV WITH REHEAT,Plant Supply,NODE 20,NODE 21
   Branch,4,CHILLED WATER LOOP FOR VAV WITH REHEAT SUPPLY OUTLET BRANCH,CHILLED WATER LOOP FOR VAV WITH REHEAT,Plant Supply,NODE 22,NODE 13
 Branch List,5,CHILLED WATER LOOP FOR VAV WITH REHEAT DEMAND BRANCHES,CHILLED WATER LOOP FOR VAV WITH REHEAT,Plant Demand,6
   Branch,1,CHILLED WATER LOOP FOR VAV WITH REHEAT DEMAND INLET BRANCH,CHILLED WATER LOOP FOR VAV WITH REHEAT,Plant Demand,NODE 15,CHILLED WATER LOOP FOR VAV WITH REHEAT DEMAND INLET PIPE NODE
   Branch,2,CHILLED WATER LOOP FOR VAV WITH REHEAT DEMAND BRANCH 1,CHILLED WATER LOOP FOR VAV WITH REHEAT,Plant Demand,NODE 17,NODE 41
   Branch,3,CHILLED WATER LOOP FOR VAV WITH REHEAT DEMAND BRANCH 2,CHILLED WATER LOOP FOR VAV WITH REHEAT,Plant Demand,NODE 83,NODE 84
   Branch,4,CHILLED WATER LOOP FOR VAV WITH REHEAT DEMAND BRANCH 3,CHILLED WATER LOOP FOR VAV WITH REHEAT,Plant Demand,NODE 126,NODE 127
   Branch,5,CHILLED WATER LOOP FOR VAV WITH REHEAT DEMAND BYPASS BRANCH,CHILLED WATER LOOP FOR VAV WITH REHEAT,Plant Demand,CHILLED WATER LOOP FOR VAV WITH REHEAT DEMAND BYPASS PIPE INLET NODE,CHILLED WATER LOOP FOR VAV WITH REHEAT DEMAND BYPASS PIPE OUTLET NODE
   Branch,6,CHILLED WATER LOOP FOR VAV WITH REHEAT DEMAND OUTLET BRANCH,CHILLED WATER LOOP FOR VAV WITH REHEAT,Plant Demand,CHILLED WATER LOOP FOR VAV WITH REHEAT DEMAND OUTLET PIPE NODE,NODE 16
 Branch List,6,CONDENSER WATER LOOP FOR VAV WITH REHEAT SUPPLY BRANCHES,CONDENSER WATER LOOP FOR VAV WITH REHEAT,Plant Supply,4
   Branch,1,CONDENSER WATER LOOP FOR VAV WITH REHEAT SUPPLY INLET BRANCH,CONDENSER WATER LOOP FOR VAV WITH REHEAT,Plant Supply,NODE 23,NODE 29
   Branch,2,CONDENSER WATER LOOP FOR VAV WITH REHEAT SUPPLY BRANCH 1,CONDENSER WATER LOOP FOR VAV WITH REHEAT,Plant Supply,NODE 25,NODE 30
   Branch,3,CONDENSER WATER LOOP FOR VAV WITH REHEAT SUPPLY BRANCH 2,CONDENSER WATER LOOP FOR VAV WITH REHEAT,Plant Supply,NODE 31,NODE 32
   Branch,4,CONDENSER WATER LOOP FOR VAV WITH REHEAT SUPPLY OUTLET BRANCH,CONDENSER WATER LOOP FOR VAV WITH REHEAT,Plant Supply,NODE 33,NODE 24
 Branch List,7,CONDENSER WATER LOOP FOR VAV WITH REHEAT DEMAND BRANCHES,CONDENSER WATER LOOP FOR VAV WITH REHEAT,Plant Demand,4
   Branch,1,CONDENSER WATER LOOP FOR VAV WITH REHEAT DEMAND INLET BRANCH,CONDENSER WATER LOOP FOR VAV WITH REHEAT,Plant Demand,NODE 26,CONDENSER WATER LOOP FOR VAV WITH REHEAT DEMAND INLET PIPE NODE
   Branch,2,CONDENSER WATER LOOP FOR VAV WITH REHEAT DEMAND BRANCH 1,CONDENSER WATER LOOP FOR VAV WITH REHEAT,Plant Demand,NODE 28,NODE 34
   Branch,3,CONDENSER WATER LOOP FOR VAV WITH REHEAT DEMAND BYPASS BRANCH,CONDENSER WATER LOOP FOR VAV WITH REHEAT,Plant Demand,CONDENSER WATER LOOP FOR VAV WITH REHEAT DEMAND BYPASS PIPE INLET NODE,CONDENSER WATER LOOP FOR VAV WITH REHEAT DEMAND BYPASS PIPE OUTLET NODE
   Branch,4,CONDENSER WATER LOOP FOR VAV WITH REHEAT DEMAND OUTLET BRANCH,CONDENSER WATER LOOP FOR VAV WITH REHEAT,Plant Demand,CONDENSER WATER LOOP FOR VAV WITH REHEAT DEMAND OUTLET PIPE NODE,NODE 27
 Branch List,8,HOT WATER LOOP FOR VAV WITH REHEAT SUPPLY BRANCHES,HOT WATER LOOP FOR VAV WITH REHEAT,Plant Supply,4
   Branch,1,HOT WATER LOOP FOR VAV WITH REHEAT SUPPLY INLET BRANCH,HOT WATER LOOP FOR VAV WITH REHEAT,Plant Supply,NODE 1,NODE 7
   Branch,2,HOT WATER LOOP FOR VAV WITH REHEAT SUPPLY BRANCH 1,HOT WATER LOOP FOR VAV WITH REHEAT,Plant Supply,NODE 3,NODE 8
   Branch,3,HOT WATER LOOP FOR VAV WITH REHEAT SUPPLY BRANCH 2,HOT WATER LOOP FOR VAV WITH REHEAT,Plant Supply,NODE 9,NODE 10
   Branch,4,HOT WATER LOOP FOR VAV WITH REHEAT SUPPLY OUTLET BRANCH,HOT WATER LOOP FOR VAV WITH REHEAT,Plant Supply,NODE 11,NODE 2
 Branch List,9,HOT WATER LOOP FOR VAV WITH REHEAT DEMAND BRANCHES,HOT WATER LOOP FOR VAV WITH REHEAT,Plant Demand,24
   Branch,1,HOT WATER LOOP FOR VAV WITH REHEAT DEMAND INLET BRANCH,HOT WATER LOOP FOR VAV WITH REHEAT,Plant Demand,NODE 4,HOT WATER LOOP FOR VAV WITH REHEAT DEMAND INLET PIPE NODE
   Branch,2,HOT WATER LOOP FOR VAV WITH REHEAT DEMAND BRANCH 1,HOT WATER LOOP FOR VAV WITH REHEAT,Plant Demand,NODE 6,NODE 40
   Branch,3,HOT WATER LOOP FOR VAV WITH REHEAT DEMAND BRANCH 2,HOT WATER LOOP FOR VAV WITH REHEAT,Plant Demand,NODE 47,NODE 48
   Branch,4,HOT WATER LOOP FOR VAV WITH REHEAT DEMAND BRANCH 3,HOT WATER LOOP FOR VAV WITH REHEAT,Plant Demand,NODE 51,NODE 52
   Branch,5,HOT WATER LOOP FOR VAV WITH REHEAT DEMAND BRANCH 4,HOT WATER LOOP FOR VAV WITH REHEAT,Plant Demand,NODE 56,NODE 57
   Branch,6,HOT WATER LOOP FOR VAV WITH REHEAT DEMAND BRANCH 5,HOT WATER LOOP FOR VAV WITH REHEAT,Plant Demand,NODE 61,NODE 62
   Branch,7,HOT WATER LOOP FOR VAV WITH REHEAT DEMAND BRANCH 6,HOT WATER LOOP FOR VAV WITH REHEAT,Plant Demand,NODE 66,NODE 67
   Branch,8,HOT WATER LOOP FOR VAV WITH REHEAT DEMAND BRANCH 7,HOT WATER LOOP FOR VAV WITH REHEAT,Plant Demand,NODE 71,NODE 72
   Branch,9,HOT WATER LOOP FOR VAV WITH REHEAT DEMAND BRANCH 8,HOT WATER LOOP FOR VAV WITH REHEAT,Plant Demand,NODE 81,NODE 82
   Branch,10,HOT WATER LOOP FOR VAV WITH REHEAT DEMAND BRANCH 9,HOT WATER LOOP FOR VAV WITH REHEAT,Plant Demand,NODE 90,NODE 91
   Branch,11,HOT WATER LOOP FOR VAV WITH REHEAT DEMAND BRANCH 10,HOT WATER LOOP FOR VAV WITH REHEAT,Plant Demand,NODE 94,NODE 95
   Branch,12,HOT WATER LOOP FOR VAV WITH REHEAT DEMAND BRANCH 11,HOT WATER LOOP FOR VAV WITH REHEAT,Plant Demand,NODE 99,NODE 100
   Branch,13,HOT WATER LOOP FOR VAV WITH REHEAT DEMAND BRANCH 12,HOT WATER LOOP FOR VAV WITH REHEAT,Plant Demand,NODE 104,NODE 105
   Branch,14,HOT WATER LOOP FOR VAV WITH REHEAT DEMAND BRANCH 13,HOT WATER LOOP FOR VAV WITH REHEAT,Plant Demand,NODE 109,NODE 110
   Branch,15,HOT WATER LOOP FOR VAV WITH REHEAT DEMAND BRANCH 14,HOT WATER LOOP FOR VAV WITH REHEAT,Plant Demand,NODE 114,NODE 115
   Branch,16,HOT WATER LOOP FOR VAV WITH REHEAT DEMAND BRANCH 15,HOT WATER LOOP FOR VAV WITH REHEAT,Plant Demand,NODE 124,NODE 125
   Branch,17,HOT WATER LOOP FOR VAV WITH REHEAT DEMAND BRANCH 16,HOT WATER LOOP FOR VAV WITH REHEAT,Plant Demand,NODE 133,NODE 134
   Branch,18,HOT WATER LOOP FOR VAV WITH REHEAT DEMAND BRANCH 17,HOT WATER LOOP FOR VAV WITH REHEAT,Plant Demand,NODE 137,NODE 138
   Branch,19,HOT WATER LOOP FOR VAV WITH REHEAT DEMAND BRANCH 18,HOT WATER LOOP FOR VAV WITH REHEAT,Plant Demand,NODE 142,NODE 143
   Branch,20,HOT WATER LOOP FOR VAV WITH REHEAT DEMAND BRANCH 19,HOT WATER LOOP FOR VAV WITH REHEAT,Plant Demand,NODE 147,NODE 148
   Branch,21,HOT WATER LOOP FOR VAV WITH REHEAT DEMAND BRANCH 20,HOT WATER LOOP FOR VAV WITH REHEAT,Plant Demand,NODE 152,NODE 153
   Branch,22,HOT WATER LOOP FOR VAV WITH REHEAT DEMAND BRANCH 21,HOT WATER LOOP FOR VAV WITH REHEAT,Plant Demand,NODE 157,NODE 158
   Branch,23,HOT WATER LOOP FOR VAV WITH REHEAT DEMAND BYPASS BRANCH,HOT WATER LOOP FOR VAV WITH REHEAT,Plant Demand,HOT WATER LOOP FOR VAV WITH REHEAT DEMAND BYPASS PIPE INLET NODE,HOT WATER LOOP FOR VAV WITH REHEAT DEMAND BYPASS PIPE OUTLET NODE
   Branch,24,HOT WATER LOOP FOR VAV WITH REHEAT DEMAND OUTLET BRANCH,HOT WATER LOOP FOR VAV WITH REHEAT,Plant Demand,HOT WATER LOOP FOR VAV WITH REHEAT DEMAND OUTLET PIPE NODE,NODE 5
 Branch List,10,MAIN SERVICE WATER LOOP SUPPLY BRANCHES,MAIN SERVICE WATER LOOP,Plant Supply,4
   Branch,1,MAIN SERVICE WATER LOOP SUPPLY INLET BRANCH,MAIN SERVICE WATER LOOP,Plant Supply,MAIN SERVICE WATER LOOP SUPPLY INLET NODE,MAIN SERVICE WATER LOOP CIRCULATOR PUMP OUTLET WATER NODE
   Branch,2,MAIN SERVICE WATER LOOP SUPPLY BRANCH 1,MAIN SERVICE WATER LOOP,Plant Supply,100GAL NATURAL GAS WATER HEATER - 100KBTU/HR 0.808 THERM EFF SUPPLY INLET WATER NODE,100GAL NATURAL GAS WATER HEATER - 100KBTU/HR 0.808 THERM EFF SUPPLY OUTLET WATER NODE
   Branch,3,MAIN SERVICE WATER LOOP SUPPLY BRANCH 2,MAIN SERVICE WATER LOOP,Plant Supply,PIPE ADIABATIC 1 INLET WATER NODE,PIPE ADIABATIC 1 OUTLET WATER NODE
   Branch,4,MAIN SERVICE WATER LOOP SUPPLY OUTLET BRANCH,MAIN SERVICE WATER LOOP,Plant Supply,PIPE ADIABATIC 3 INLET WATER NODE,MAIN SERVICE WATER LOOP SUPPLY OUTLET NODE
 Branch List,11,MAIN SERVICE WATER LOOP DEMAND BRANCHES,MAIN SERVICE WATER LOOP,Plant Demand,19
   Branch,1,MAIN SERVICE WATER LOOP DEMAND INLET BRANCH,MAIN SERVICE WATER LOOP,Plant Demand,MAIN SERVICE WATER LOOP DEMAND INLET NODE,MAIN SERVICE WATER LOOP DEMAND INLET PIPE NODE
   Branch,2,MAIN SERVICE WATER LOOP DEMAND BRANCH 1,MAIN SERVICE WATER LOOP,Plant Demand,PIPE ADIABATIC 2 INLET WATER NODE,PIPE ADIABATIC 2 OUTLET WATER NODE
   Branch,3,MAIN SERVICE WATER LOOP DEMAND BRANCH 2,MAIN SERVICE WATER LOOP,Plant Demand,WATER USE CONNECTIONS 1 INLET WATER NODE,WATER USE CONNECTIONS 1 OUTLET WATER NODE
   Branch,4,MAIN SERVICE WATER LOOP DEMAND BRANCH 3,MAIN SERVICE WATER LOOP,Plant Demand,WATER USE CONNECTIONS 2 INLET WATER NODE,WATER USE CONNECTIONS 2 OUTLET WATER NODE
   Branch,5,MAIN SERVICE WATER LOOP DEMAND BRANCH 4,MAIN SERVICE WATER LOOP,Plant Demand,WATER USE CONNECTIONS 3 INLET WATER NODE,WATER USE CONNECTIONS 3 OUTLET WATER NODE
   Branch,6,MAIN SERVICE WATER LOOP DEMAND BRANCH 5,MAIN SERVICE WATER LOOP,Plant Demand,WATER USE CONNECTIONS 4 INLET WATER NODE,WATER USE CONNECTIONS 4 OUTLET WATER NODE
   Branch,7,MAIN SERVICE WATER LOOP DEMAND BRANCH 6,MAIN SERVICE WATER LOOP,Plant Demand,WATER USE CONNECTIONS 5 INLET WATER NODE,WATER USE CONNECTIONS 5 OUTLET WATER NODE
   Branch,8,MAIN SERVICE WATER LOOP DEMAND BRANCH 7,MAIN SERVICE WATER LOOP,Plant Demand,WATER USE CONNECTIONS 6 INLET WATER NODE,WATER USE CONNECTIONS 6 OUTLET WATER NODE
   Branch,9,MAIN SERVICE WATER LOOP DEMAND BRANCH 8,MAIN SERVICE WATER LOOP,Plant Demand,WATER USE CONNECTIONS 7 INLET WATER NODE,WATER USE CONNECTIONS 7 OUTLET WATER NODE
   Branch,10,MAIN SERVICE WATER LOOP DEMAND BRANCH 9,MAIN SERVICE WATER LOOP,Plant Demand,WATER USE CONNECTIONS 8 INLET WATER NODE,WATER USE CONNECTIONS 8 OUTLET WATER NODE
   Branch,11,MAIN SERVICE WATER LOOP DEMAND BRANCH 10,MAIN SERVICE WATER LOOP,Plant Demand,WATER USE CONNECTIONS 9 INLET WATER NODE,WATER USE CONNECTIONS 9 OUTLET WATER NODE
   Branch,12,MAIN SERVICE WATER LOOP DEMAND BRANCH 11,MAIN SERVICE WATER LOOP,Plant Demand,WATER USE CONNECTIONS 10 INLET WATER NODE,WATER USE CONNECTIONS 10 OUTLET WATER NODE
   Branch,13,MAIN SERVICE WATER LOOP DEMAND BRANCH 12,MAIN SERVICE WATER LOOP,Plant Demand,WATER USE CONNECTIONS 11 INLET WATER NODE,WATER USE CONNECTIONS 11 OUTLET WATER NODE
   Branch,14,MAIN SERVICE WATER LOOP DEMAND BRANCH 13,MAIN SERVICE WATER LOOP,Plant Demand,WATER USE CONNECTIONS 12 INLET WATER NODE,WATER USE CONNECTIONS 12 OUTLET WATER NODE
   Branch,15,MAIN SERVICE WATER LOOP DEMAND BRANCH 14,MAIN SERVICE WATER LOOP,Plant Demand,WATER USE CONNECTIONS 13 INLET WATER NODE,WATER USE CONNECTIONS 13 OUTLET WATER NODE
   Branch,16,MAIN SERVICE WATER LOOP DEMAND BRANCH 15,MAIN SERVICE WATER LOOP,Plant Demand,WATER USE CONNECTIONS 14 INLET WATER NODE,WATER USE CONNECTIONS 14 OUTLET WATER NODE
   Branch,17,MAIN SERVICE WATER LOOP DEMAND BRANCH 16,MAIN SERVICE WATER LOOP,Plant Demand,WATER USE CONNECTIONS 15 INLET WATER NODE,WATER USE CONNECTIONS 15 OUTLET WATER NODE
   Branch,18,MAIN SERVICE WATER LOOP DEMAND BYPASS BRANCH,MAIN SERVICE WATER LOOP,Plant Demand,MAIN SERVICE WATER LOOP DEMAND BYPASS PIPE INLET NODE,MAIN SERVICE WATER LOOP DEMAND BYPASS PIPE OUTLET NODE
   Branch,19,MAIN SERVICE WATER LOOP DEMAND OUTLET BRANCH,MAIN SERVICE WATER LOOP,Plant Demand,PIPE ADIABATIC 4 INLET WATER NODE,MAIN SERVICE WATER LOOP DEMAND OUTLET NODE
! ===============================================================
! <#Supply Air Paths>,<Number of Supply Air Paths>
 #Supply Air Paths,3
! <Supply Air Path>,<Supply Air Path Count>,<Supply Air Path Name>,<AirLoopHVAC Name>
! <#Components on Supply Air Path>,<Number of Components>
! <Supply Air Path Component>,<Component Count>,<Component Type>,<Component Name>,<AirLoopHVAC Name>
! <#Outlet Nodes on Supply Air Path Component>,<Number of Nodes>
! <Supply Air Path Component Nodes>,<Node Count>,<Component Type>,<Component Name>,<Inlet Node Name>,<Outlet Node Name>,<AirLoopHVAC Name>
 Supply Air Path,1,VAV WITH REHEAT NODE 37 SUPPLY PATH,VAV WITH REHEAT
   #Components on Supply Air Path,1
   Supply Air Path Component,1,AIRLOOPHVAC:ZONESPLITTER,AIR LOOP HVAC ZONE SPLITTER 1,VAV WITH REHEAT
     #Outlet Nodes on Supply Air Path Component,6
     Supply Air Path Component Nodes,1,AIRLOOPHVAC:ZONESPLITTER,AIR LOOP HVAC ZONE SPLITTER 1,NODE 37,NODE 50,VAV WITH REHEAT
     Supply Air Path Component Nodes,2,AIRLOOPHVAC:ZONESPLITTER,AIR LOOP HVAC ZONE SPLITTER 1,NODE 37,NODE 55,VAV WITH REHEAT
     Supply Air Path Component Nodes,3,AIRLOOPHVAC:ZONESPLITTER,AIR LOOP HVAC ZONE SPLITTER 1,NODE 37,NODE 60,VAV WITH REHEAT
     Supply Air Path Component Nodes,4,AIRLOOPHVAC:ZONESPLITTER,AIR LOOP HVAC ZONE SPLITTER 1,NODE 37,NODE 65,VAV WITH REHEAT
     Supply Air Path Component Nodes,5,AIRLOOPHVAC:ZONESPLITTER,AIR LOOP HVAC ZONE SPLITTER 1,NODE 37,NODE 70,VAV WITH REHEAT
     Supply Air Path Component Nodes,6,AIRLOOPHVAC:ZONESPLITTER,AIR LOOP HVAC ZONE SPLITTER 1,NODE 37,NODE 75,VAV WITH REHEAT
! <#Nodes on Supply Air Path>,<Number of Nodes>
! <Supply Air Path Node>,<Node Type>,<Node Count>,<Node Name>,<AirLoopHVAC Name>
#Nodes on Supply Air Path,7
   Supply Air Path Node,Inlet Node,1,NODE 37,VAV WITH REHEAT
   Supply Air Path Node,Outlet Node,2,NODE 50,VAV WITH REHEAT
   Supply Air Path Node,Outlet Node,3,NODE 55,VAV WITH REHEAT
   Supply Air Path Node,Outlet Node,4,NODE 60,VAV WITH REHEAT
   Supply Air Path Node,Outlet Node,5,NODE 65,VAV WITH REHEAT
   Supply Air Path Node,Outlet Node,6,NODE 70,VAV WITH REHEAT
   Supply Air Path Node,Outlet Node,7,NODE 75,VAV WITH REHEAT
 Supply Air Path,2,VAV WITH REHEAT 1 NODE 78 SUPPLY PATH,VAV WITH REHEAT 1
   #Components on Supply Air Path,1
   Supply Air Path Component,1,AIRLOOPHVAC:ZONESPLITTER,AIR LOOP HVAC ZONE SPLITTER 2,VAV WITH REHEAT 1
     #Outlet Nodes on Supply Air Path Component,6
     Supply Air Path Component Nodes,1,AIRLOOPHVAC:ZONESPLITTER,AIR LOOP HVAC ZONE SPLITTER 2,NODE 78,NODE 93,VAV WITH REHEAT 1
     Supply Air Path Component Nodes,2,AIRLOOPHVAC:ZONESPLITTER,AIR LOOP HVAC ZONE SPLITTER 2,NODE 78,NODE 98,VAV WITH REHEAT 1
     Supply Air Path Component Nodes,3,AIRLOOPHVAC:ZONESPLITTER,AIR LOOP HVAC ZONE SPLITTER 2,NODE 78,NODE 103,VAV WITH REHEAT 1
     Supply Air Path Component Nodes,4,AIRLOOPHVAC:ZONESPLITTER,AIR LOOP HVAC ZONE SPLITTER 2,NODE 78,NODE 108,VAV WITH REHEAT 1
     Supply Air Path Component Nodes,5,AIRLOOPHVAC:ZONESPLITTER,AIR LOOP HVAC ZONE SPLITTER 2,NODE 78,NODE 113,VAV WITH REHEAT 1
     Supply Air Path Component Nodes,6,AIRLOOPHVAC:ZONESPLITTER,AIR LOOP HVAC ZONE SPLITTER 2,NODE 78,NODE 118,VAV WITH REHEAT 1
! <#Nodes on Supply Air Path>,<Number of Nodes>
! <Supply Air Path Node>,<Node Type>,<Node Count>,<Node Name>,<AirLoopHVAC Name>
#Nodes on Supply Air Path,7
   Supply Air Path Node,Inlet Node,1,NODE 78,VAV WITH REHEAT 1
   Supply Air Path Node,Outlet Node,2,NODE 93,VAV WITH REHEAT 1
   Supply Air Path Node,Outlet Node,3,NODE 98,VAV WITH REHEAT 1
   Supply Air Path Node,Outlet Node,4,NODE 103,VAV WITH REHEAT 1
   Supply Air Path Node,Outlet Node,5,NODE 108,VAV WITH REHEAT 1
   Supply Air Path Node,Outlet Node,6,NODE 113,VAV WITH REHEAT 1
   Supply Air Path Node,Outlet Node,7,NODE 118,VAV WITH REHEAT 1
 Supply Air Path,3,VAV WITH REHEAT 2 NODE 121 SUPPLY PATH,VAV WITH REHEAT 2
   #Components on Supply Air Path,1
   Supply Air Path Component,1,AIRLOOPHVAC:ZONESPLITTER,AIR LOOP HVAC ZONE SPLITTER 3,VAV WITH REHEAT 2
     #Outlet Nodes on Supply Air Path Component,6
     Supply Air Path Component Nodes,1,AIRLOOPHVAC:ZONESPLITTER,AIR LOOP HVAC ZONE SPLITTER 3,NODE 121,NODE 136,VAV WITH REHEAT 2
     Supply Air Path Component Nodes,2,AIRLOOPHVAC:ZONESPLITTER,AIR LOOP HVAC ZONE SPLITTER 3,NODE 121,NODE 141,VAV WITH REHEAT 2
     Supply Air Path Component Nodes,3,AIRLOOPHVAC:ZONESPLITTER,AIR LOOP HVAC ZONE SPLITTER 3,NODE 121,NODE 146,VAV WITH REHEAT 2
     Supply Air Path Component Nodes,4,AIRLOOPHVAC:ZONESPLITTER,AIR LOOP HVAC ZONE SPLITTER 3,NODE 121,NODE 151,VAV WITH REHEAT 2
     Supply Air Path Component Nodes,5,AIRLOOPHVAC:ZONESPLITTER,AIR LOOP HVAC ZONE SPLITTER 3,NODE 121,NODE 156,VAV WITH REHEAT 2
     Supply Air Path Component Nodes,6,AIRLOOPHVAC:ZONESPLITTER,AIR LOOP HVAC ZONE SPLITTER 3,NODE 121,NODE 161,VAV WITH REHEAT 2
! <#Nodes on Supply Air Path>,<Number of Nodes>
! <Supply Air Path Node>,<Node Type>,<Node Count>,<Node Name>,<AirLoopHVAC Name>
#Nodes on Supply Air Path,7
   Supply Air Path Node,Inlet Node,1,NODE 121,VAV WITH REHEAT 2
   Supply Air Path Node,Outlet Node,2,NODE 136,VAV WITH REHEAT 2
   Supply Air Path Node,Outlet Node,3,NODE 141,VAV WITH REHEAT 2
   Supply Air Path Node,Outlet Node,4,NODE 146,VAV WITH REHEAT 2
   Supply Air Path Node,Outlet Node,5,NODE 151,VAV WITH REHEAT 2
   Supply Air Path Node,Outlet Node,6,NODE 156,VAV WITH REHEAT 2
   Supply Air Path Node,Outlet Node,7,NODE 161,VAV WITH REHEAT 2
! ===============================================================
! <#Return Air Paths>,<Number of Return Air Paths>
 #Return Air Paths,3
! <Return Air Path>,<Return Air Path Count>,<Return Air Path Name>,<AirLoopHVAC Name>
! <#Components on Return Air Path>,<Number of Components>
! <Return Air Path Component>,<Component Count>,<Component Type>,<Component Name>,<AirLoopHVAC Name>
! <#Inlet Nodes on Return Air Path Component>,<Number of Nodes>
! <Return Air Path Component Nodes>,<Node Count>,<Component Type>,<Component Name>,<Inlet Node Name>,<Outlet Node Name>,<AirLoopHVAC Name>
 Return Air Path,1,VAV WITH REHEAT RETURN PATH,VAV WITH REHEAT
   #Components on Return Air Path,1
   Return Air Path Component,1,AIRLOOPHVAC:ZONEMIXER,AIR LOOP HVAC ZONE MIXER 1,VAV WITH REHEAT
     #Inlet Nodes on Return Air Path Component,6
     Return Air Path Component Nodes,1,AIRLOOPHVAC:ZONEMIXER,AIR LOOP HVAC ZONE MIXER 1,NODE 49,NODE 38,VAV WITH REHEAT
     Return Air Path Component Nodes,2,AIRLOOPHVAC:ZONEMIXER,AIR LOOP HVAC ZONE MIXER 1,NODE 54,NODE 38,VAV WITH REHEAT
     Return Air Path Component Nodes,3,AIRLOOPHVAC:ZONEMIXER,AIR LOOP HVAC ZONE MIXER 1,NODE 59,NODE 38,VAV WITH REHEAT
     Return Air Path Component Nodes,4,AIRLOOPHVAC:ZONEMIXER,AIR LOOP HVAC ZONE MIXER 1,NODE 64,NODE 38,VAV WITH REHEAT
     Return Air Path Component Nodes,5,AIRLOOPHVAC:ZONEMIXER,AIR LOOP HVAC ZONE MIXER 1,NODE 69,NODE 38,VAV WITH REHEAT
     Return Air Path Component Nodes,6,AIRLOOPHVAC:ZONEMIXER,AIR LOOP HVAC ZONE MIXER 1,NODE 74,NODE 38,VAV WITH REHEAT
! <#Nodes on Return Air Path>,<Number of Nodes>
! <Return Air Path Node>,<Node Type>,<Node Count>,<Node Name>,<AirLoopHVAC Name>
   #Nodes on Return Air Path,7
   Return Air Path Node,Outlet Node,1,NODE 38,VAV WITH REHEAT
   Return Air Path Node,Inlet Node,2,NODE 49,VAV WITH REHEAT
   Return Air Path Node,Inlet Node,3,NODE 54,VAV WITH REHEAT
   Return Air Path Node,Inlet Node,4,NODE 59,VAV WITH REHEAT
   Return Air Path Node,Inlet Node,5,NODE 64,VAV WITH REHEAT
   Return Air Path Node,Inlet Node,6,NODE 69,VAV WITH REHEAT
   Return Air Path Node,Inlet Node,7,NODE 74,VAV WITH REHEAT
 Return Air Path,2,VAV WITH REHEAT 1 RETURN PATH,VAV WITH REHEAT 1
   #Components on Return Air Path,1
   Return Air Path Component,1,AIRLOOPHVAC:ZONEMIXER,AIR LOOP HVAC ZONE MIXER 2,VAV WITH REHEAT 1
     #Inlet Nodes on Return Air Path Component,6
     Return Air Path Component Nodes,1,AIRLOOPHVAC:ZONEMIXER,AIR LOOP HVAC ZONE MIXER 2,NODE 92,NODE 79,VAV WITH REHEAT 1
     Return Air Path Component Nodes,2,AIRLOOPHVAC:ZONEMIXER,AIR LOOP HVAC ZONE MIXER 2,NODE 97,NODE 79,VAV WITH REHEAT 1
     Return Air Path Component Nodes,3,AIRLOOPHVAC:ZONEMIXER,AIR LOOP HVAC ZONE MIXER 2,NODE 102,NODE 79,VAV WITH REHEAT 1
     Return Air Path Component Nodes,4,AIRLOOPHVAC:ZONEMIXER,AIR LOOP HVAC ZONE MIXER 2,NODE 107,NODE 79,VAV WITH REHEAT 1
     Return Air Path Component Nodes,5,AIRLOOPHVAC:ZONEMIXER,AIR LOOP HVAC ZONE MIXER 2,NODE 112,NODE 79,VAV WITH REHEAT 1
     Return Air Path Component Nodes,6,AIRLOOPHVAC:ZONEMIXER,AIR LOOP HVAC ZONE MIXER 2,NODE 117,NODE 79,VAV WITH REHEAT 1
! <#Nodes on Return Air Path>,<Number of Nodes>
! <Return Air Path Node>,<Node Type>,<Node Count>,<Node Name>,<AirLoopHVAC Name>
   #Nodes on Return Air Path,7
   Return Air Path Node,Outlet Node,1,NODE 79,VAV WITH REHEAT 1
   Return Air Path Node,Inlet Node,2,NODE 92,VAV WITH REHEAT 1
   Return Air Path Node,Inlet Node,3,NODE 97,VAV WITH REHEAT 1
   Return Air Path Node,Inlet Node,4,NODE 102,VAV WITH REHEAT 1
   Return Air Path Node,Inlet Node,5,NODE 107,VAV WITH REHEAT 1
   Return Air Path Node,Inlet Node,6,NODE 112,VAV WITH REHEAT 1
   Return Air Path Node,Inlet Node,7,NODE 117,VAV WITH REHEAT 1
 Return Air Path,3,VAV WITH REHEAT 2 RETURN PATH,VAV WITH REHEAT 2
   #Components on Return Air Path,1
   Return Air Path Component,1,AIRLOOPHVAC:ZONEMIXER,AIR LOOP HVAC ZONE MIXER 3,VAV WITH REHEAT 2
     #Inlet Nodes on Return Air Path Component,6
     Return Air Path Component Nodes,1,AIRLOOPHVAC:ZONEMIXER,AIR LOOP HVAC ZONE MIXER 3,NODE 135,NODE 122,VAV WITH REHEAT 2
     Return Air Path Component Nodes,2,AIRLOOPHVAC:ZONEMIXER,AIR LOOP HVAC ZONE MIXER 3,NODE 140,NODE 122,VAV WITH REHEAT 2
     Return Air Path Component Nodes,3,AIRLOOPHVAC:ZONEMIXER,AIR LOOP HVAC ZONE MIXER 3,NODE 145,NODE 122,VAV WITH REHEAT 2
     Return Air Path Component Nodes,4,AIRLOOPHVAC:ZONEMIXER,AIR LOOP HVAC ZONE MIXER 3,NODE 150,NODE 122,VAV WITH REHEAT 2
     Return Air Path Component Nodes,5,AIRLOOPHVAC:ZONEMIXER,AIR LOOP HVAC ZONE MIXER 3,NODE 155,NODE 122,VAV WITH REHEAT 2
     Return Air Path Component Nodes,6,AIRLOOPHVAC:ZONEMIXER,AIR LOOP HVAC ZONE MIXER 3,NODE 160,NODE 122,VAV WITH REHEAT 2
! <#Nodes on Return Air Path>,<Number of Nodes>
! <Return Air Path Node>,<Node Type>,<Node Count>,<Node Name>,<AirLoopHVAC Name>
   #Nodes on Return Air Path,7
   Return Air Path Node,Outlet Node,1,NODE 122,VAV WITH REHEAT 2
   Return Air Path Node,Inlet Node,2,NODE 135,VAV WITH REHEAT 2
   Return Air Path Node,Inlet Node,3,NODE 140,VAV WITH REHEAT 2
   Return Air Path Node,Inlet Node,4,NODE 145,VAV WITH REHEAT 2
   Return Air Path Node,Inlet Node,5,NODE 150,VAV WITH REHEAT 2
   Return Air Path Node,Inlet Node,6,NODE 155,VAV WITH REHEAT 2
   Return Air Path Node,Inlet Node,7,NODE 160,VAV WITH REHEAT 2
! ===============================================================
! #Outdoor Air Nodes,<Number of Outdoor Air Nodes>
 #Outdoor Air Nodes,4
! <Outdoor Air Node>,<NodeNumber>,<Node Name>
 Outdoor Air Node,214,NODE 42
 Outdoor Air Node,215,NODE 85
 Outdoor Air Node,216,NODE 128
 Outdoor Air Node,217,MODEL OUTDOOR AIR NODE
! ===============================================================
! <#Component Sets>,<Number of Component Sets>
 #Component Sets,120
! <Component Set>,<Component Set Count>,<Parent Object Type>,<Parent Object Name>,<Component Type>,<Component Name>,<Inlet Node ID>,<Outlet Node ID>,<Description>
 Component Set,1,BRANCH,VAV WITH REHEAT MAIN BRANCH,AIRLOOPHVAC:OUTDOORAIRSYSTEM,AIR LOOP HVAC OUTDOOR AIR SYSTEM 1,NODE 35,NODE 46,Air Nodes
 Component Set,2,BRANCH,VAV WITH REHEAT MAIN BRANCH,COIL:COOLING:WATER,COIL COOLING WATER 1,NODE 46,NODE 45,Air Nodes
 Component Set,3,BRANCH,VAV WITH REHEAT MAIN BRANCH,COIL:HEATING:WATER,COIL HEATING WATER 1,NODE 45,NODE 44,Air Nodes
 Component Set,4,BRANCH,VAV WITH REHEAT MAIN BRANCH,FAN:VARIABLEVOLUME,FAN VARIABLE VOLUME 1,NODE 44,NODE 36,Air Nodes
 Component Set,5,BRANCH,VAV WITH REHEAT 1 MAIN BRANCH,AIRLOOPHVAC:OUTDOORAIRSYSTEM,AIR LOOP HVAC OUTDOOR AIR SYSTEM 2,NODE 76,NODE 89,Air Nodes
 Component Set,6,BRANCH,VAV WITH REHEAT 1 MAIN BRANCH,COIL:COOLING:WATER,COIL COOLING WATER 2,NODE 89,NODE 88,Air Nodes
 Component Set,7,BRANCH,VAV WITH REHEAT 1 MAIN BRANCH,COIL:HEATING:WATER,COIL HEATING WATER 8,NODE 88,NODE 87,Air Nodes
 Component Set,8,BRANCH,VAV WITH REHEAT 1 MAIN BRANCH,FAN:VARIABLEVOLUME,FAN VARIABLE VOLUME 2,NODE 87,NODE 77,Air Nodes
 Component Set,9,BRANCH,VAV WITH REHEAT 2 MAIN BRANCH,AIRLOOPHVAC:OUTDOORAIRSYSTEM,AIR LOOP HVAC OUTDOOR AIR SYSTEM 3,NODE 119,NODE 132,Air Nodes
 Component Set,10,BRANCH,VAV WITH REHEAT 2 MAIN BRANCH,COIL:COOLING:WATER,COIL COOLING WATER 3,NODE 132,NODE 131,Air Nodes
 Component Set,11,BRANCH,VAV WITH REHEAT 2 MAIN BRANCH,COIL:HEATING:WATER,COIL HEATING WATER 15,NODE 131,NODE 130,Air Nodes
 Component Set,12,BRANCH,VAV WITH REHEAT 2 MAIN BRANCH,FAN:VARIABLEVOLUME,FAN VARIABLE VOLUME 3,NODE 130,NODE 120,Air Nodes
 Component Set,13,BRANCH,CHILLED WATER LOOP FOR VAV WITH REHEAT SUPPLY INLET BRANCH,PUMP:VARIABLESPEED,PUMP VARIABLE SPEED 2,NODE 12,NODE 18,Water Nodes
 Component Set,14,BRANCH,CHILLED WATER LOOP FOR VAV WITH REHEAT SUPPLY BRANCH 1,CHILLER:ELECTRIC:EIR,CHILLER ELECTRIC EIR 1,NODE 14,NODE 19,Chilled Water Nodes
 Component Set,15,BRANCH,CHILLED WATER LOOP FOR VAV WITH REHEAT SUPPLY BRANCH 2,PIPE:ADIABATIC,PIPE ADIABATIC 7,NODE 20,NODE 21,Pipe Nodes
 Component Set,16,BRANCH,CHILLED WATER LOOP FOR VAV WITH REHEAT SUPPLY OUTLET BRANCH,PIPE:ADIABATIC,PIPE ADIABATIC 8,NODE 22,NODE 13,Pipe Nodes
 Component Set,17,BRANCH,CHILLED WATER LOOP FOR VAV WITH REHEAT DEMAND INLET BRANCH,PIPE:ADIABATIC,CHILLED WATER LOOP FOR VAV WITH REHEAT DEMAND INLET PIPE,NODE 15,CHILLED WATER LOOP FOR VAV WITH REHEAT DEMAND INLET PIPE NODE,Pipe Nodes
 Component Set,18,BRANCH,CHILLED WATER LOOP FOR VAV WITH REHEAT DEMAND BRANCH 1,COIL:COOLING:WATER,COIL COOLING WATER 1,NODE 17,NODE 41,Water Nodes
 Component Set,19,BRANCH,CHILLED WATER LOOP FOR VAV WITH REHEAT DEMAND BRANCH 2,COIL:COOLING:WATER,COIL COOLING WATER 2,NODE 83,NODE 84,Water Nodes
 Component Set,20,BRANCH,CHILLED WATER LOOP FOR VAV WITH REHEAT DEMAND BRANCH 3,COIL:COOLING:WATER,COIL COOLING WATER 3,NODE 126,NODE 127,Water Nodes
 Component Set,21,BRANCH,CHILLED WATER LOOP FOR VAV WITH REHEAT DEMAND BYPASS BRANCH,PIPE:ADIABATIC,CHILLED WATER LOOP FOR VAV WITH REHEAT DEMAND BYPASS PIPE,CHILLED WATER LOOP FOR VAV WITH REHEAT DEMAND BYPASS PIPE INLET NODE,CHILLED WATER LOOP FOR VAV WITH REHEAT DEMAND BYPASS PIPE OUTLET NODE,Pipe Nodes
 Component Set,22,BRANCH,CHILLED WATER LOOP FOR VAV WITH REHEAT DEMAND OUTLET BRANCH,PIPE:ADIABATIC,CHILLED WATER LOOP FOR VAV WITH REHEAT DEMAND OUTLET PIPE,CHILLED WATER LOOP FOR VAV WITH REHEAT DEMAND OUTLET PIPE NODE,NODE 16,Pipe Nodes
 Component Set,23,BRANCH,CONDENSER WATER LOOP FOR VAV WITH REHEAT SUPPLY INLET BRANCH,PUMP:VARIABLESPEED,PUMP VARIABLE SPEED 3,NODE 23,NODE 29,Water Nodes
 Component Set,24,BRANCH,CONDENSER WATER LOOP FOR VAV WITH REHEAT SUPPLY BRANCH 1,COOLINGTOWER:SINGLESPEED,COOLING TOWER SINGLE SPEED 1,NODE 25,NODE 30,Chilled Water Nodes
 Component Set,25,BRANCH,CONDENSER WATER LOOP FOR VAV WITH REHEAT SUPPLY BRANCH 2,PIPE:ADIABATIC,PIPE ADIABATIC 9,NODE 31,NODE 32,Pipe Nodes
 Component Set,26,BRANCH,CONDENSER WATER LOOP FOR VAV WITH REHEAT SUPPLY OUTLET BRANCH,PIPE:ADIABATIC,PIPE ADIABATIC 10,NODE 33,NODE 24,Pipe Nodes
 Component Set,27,BRANCH,CONDENSER WATER LOOP FOR VAV WITH REHEAT DEMAND INLET BRANCH,PIPE:ADIABATIC,CONDENSER WATER LOOP FOR VAV WITH REHEAT DEMAND INLET PIPE,NODE 26,CONDENSER WATER LOOP FOR VAV WITH REHEAT DEMAND INLET PIPE NODE,Pipe Nodes
 Component Set,28,BRANCH,CONDENSER WATER LOOP FOR VAV WITH REHEAT DEMAND BRANCH 1,CHILLER:ELECTRIC:EIR,CHILLER ELECTRIC EIR 1,NODE 28,NODE 34,Condenser Water Nodes
 Component Set,29,BRANCH,CONDENSER WATER LOOP FOR VAV WITH REHEAT DEMAND BYPASS BRANCH,PIPE:ADIABATIC,CONDENSER WATER LOOP FOR VAV WITH REHEAT DEMAND BYPASS PIPE,CONDENSER WATER LOOP FOR VAV WITH REHEAT DEMAND BYPASS PIPE INLET NODE,CONDENSER WATER LOOP FOR VAV WITH REHEAT DEMAND BYPASS PIPE OUTLET NODE,Pipe Nodes
 Component Set,30,BRANCH,CONDENSER WATER LOOP FOR VAV WITH REHEAT DEMAND OUTLET BRANCH,PIPE:ADIABATIC,CONDENSER WATER LOOP FOR VAV WITH REHEAT DEMAND OUTLET PIPE,CONDENSER WATER LOOP FOR VAV WITH REHEAT DEMAND OUTLET PIPE NODE,NODE 27,Pipe Nodes
 Component Set,31,BRANCH,HOT WATER LOOP FOR VAV WITH REHEAT SUPPLY INLET BRANCH,PUMP:VARIABLESPEED,PUMP VARIABLE SPEED 1,NODE 1,NODE 7,Water Nodes
 Component Set,32,BRANCH,HOT WATER LOOP FOR VAV WITH REHEAT SUPPLY BRANCH 1,BOILER:HOTWATER,BOILER HOT WATER 1,NODE 3,NODE 8,Hot Water Nodes
 Component Set,33,BRANCH,HOT WATER LOOP FOR VAV WITH REHEAT SUPPLY BRANCH 2,PIPE:ADIABATIC,PIPE ADIABATIC 5,NODE 9,NODE 10,Pipe Nodes
 Component Set,34,BRANCH,HOT WATER LOOP FOR VAV WITH REHEAT SUPPLY OUTLET BRANCH,PIPE:ADIABATIC,PIPE ADIABATIC 6,NODE 11,NODE 2,Pipe Nodes
 Component Set,35,BRANCH,HOT WATER LOOP FOR VAV WITH REHEAT DEMAND INLET BRANCH,PIPE:ADIABATIC,HOT WATER LOOP FOR VAV WITH REHEAT DEMAND INLET PIPE,NODE 4,HOT WATER LOOP FOR VAV WITH REHEAT DEMAND INLET PIPE NODE,Pipe Nodes
 Component Set,36,BRANCH,HOT WATER LOOP FOR VAV WITH REHEAT DEMAND BRANCH 1,COIL:HEATING:WATER,COIL HEATING WATER 1,NODE 6,NODE 40,Water Nodes
 Component Set,37,BRANCH,HOT WATER LOOP FOR VAV WITH REHEAT DEMAND BRANCH 2,COIL:HEATING:WATER,COIL HEATING WATER 2,NODE 47,NODE 48,Water Nodes
 Component Set,38,BRANCH,HOT WATER LOOP FOR VAV WITH REHEAT DEMAND BRANCH 3,COIL:HEATING:WATER,COIL HEATING WATER 3,NODE 51,NODE 52,Water Nodes
 Component Set,39,BRANCH,HOT WATER LOOP FOR VAV WITH REHEAT DEMAND BRANCH 4,COIL:HEATING:WATER,COIL HEATING WATER 4,NODE 56,NODE 57,Water Nodes
 Component Set,40,BRANCH,HOT WATER LOOP FOR VAV WITH REHEAT DEMAND BRANCH 5,COIL:HEATING:WATER,COIL HEATING WATER 5,NODE 61,NODE 62,Water Nodes
 Component Set,41,BRANCH,HOT WATER LOOP FOR VAV WITH REHEAT DEMAND BRANCH 6,COIL:HEATING:WATER,COIL HEATING WATER 6,NODE 66,NODE 67,Water Nodes
 Component Set,42,BRANCH,HOT WATER LOOP FOR VAV WITH REHEAT DEMAND BRANCH 7,COIL:HEATING:WATER,COIL HEATING WATER 7,NODE 71,NODE 72,Water Nodes
 Component Set,43,BRANCH,HOT WATER LOOP FOR VAV WITH REHEAT DEMAND BRANCH 8,COIL:HEATING:WATER,COIL HEATING WATER 8,NODE 81,NODE 82,Water Nodes
 Component Set,44,BRANCH,HOT WATER LOOP FOR VAV WITH REHEAT DEMAND BRANCH 9,COIL:HEATING:WATER,COIL HEATING WATER 9,NODE 90,NODE 91,Water Nodes
 Component Set,45,BRANCH,HOT WATER LOOP FOR VAV WITH REHEAT DEMAND BRANCH 10,COIL:HEATING:WATER,COIL HEATING WATER 10,NODE 94,NODE 95,Water Nodes
 Component Set,46,BRANCH,HOT WATER LOOP FOR VAV WITH REHEAT DEMAND BRANCH 11,COIL:HEATING:WATER,COIL HEATING WATER 11,NODE 99,NODE 100,Water Nodes
 Component Set,47,BRANCH,HOT WATER LOOP FOR VAV WITH REHEAT DEMAND BRANCH 12,COIL:HEATING:WATER,COIL HEATING WATER 12,NODE 104,NODE 105,Water Nodes
 Component Set,48,BRANCH,HOT WATER LOOP FOR VAV WITH REHEAT DEMAND BRANCH 13,COIL:HEATING:WATER,COIL HEATING WATER 13,NODE 109,NODE 110,Water Nodes
 Component Set,49,BRANCH,HOT WATER LOOP FOR VAV WITH REHEAT DEMAND BRANCH 14,COIL:HEATING:WATER,COIL HEATING WATER 14,NODE 114,NODE 115,Water Nodes
 Component Set,50,BRANCH,HOT WATER LOOP FOR VAV WITH REHEAT DEMAND BRANCH 15,COIL:HEATING:WATER,COIL HEATING WATER 15,NODE 124,NODE 125,Water Nodes
 Component Set,51,BRANCH,HOT WATER LOOP FOR VAV WITH REHEAT DEMAND BRANCH 16,COIL:HEATING:WATER,COIL HEATING WATER 16,NODE 133,NODE 134,Water Nodes
 Component Set,52,BRANCH,HOT WATER LOOP FOR VAV WITH REHEAT DEMAND BRANCH 17,COIL:HEATING:WATER,COIL HEATING WATER 17,NODE 137,NODE 138,Water Nodes
 Component Set,53,BRANCH,HOT WATER LOOP FOR VAV WITH REHEAT DEMAND BRANCH 18,COIL:HEATING:WATER,COIL HEATING WATER 18,NODE 142,NODE 143,Water Nodes
 Component Set,54,BRANCH,HOT WATER LOOP FOR VAV WITH REHEAT DEMAND BRANCH 19,COIL:HEATING:WATER,COIL HEATING WATER 19,NODE 147,NODE 148,Water Nodes
 Component Set,55,BRANCH,HOT WATER LOOP FOR VAV WITH REHEAT DEMAND BRANCH 20,COIL:HEATING:WATER,COIL HEATING WATER 20,NODE 152,NODE 153,Water Nodes
 Component Set,56,BRANCH,HOT WATER LOOP FOR VAV WITH REHEAT DEMAND BRANCH 21,COIL:HEATING:WATER,COIL HEATING WATER 21,NODE 157,NODE 158,Water Nodes
 Component Set,57,BRANCH,HOT WATER LOOP FOR VAV WITH REHEAT DEMAND BYPASS BRANCH,PIPE:ADIABATIC,HOT WATER LOOP FOR VAV WITH REHEAT DEMAND BYPASS PIPE,HOT WATER LOOP FOR VAV WITH REHEAT DEMAND BYPASS PIPE INLET NODE,HOT WATER LOOP FOR VAV WITH REHEAT DEMAND BYPASS PIPE OUTLET NODE,Pipe Nodes
 Component Set,58,BRANCH,HOT WATER LOOP FOR VAV WITH REHEAT DEMAND OUTLET BRANCH,PIPE:ADIABATIC,HOT WATER LOOP FOR VAV WITH REHEAT DEMAND OUTLET PIPE,HOT WATER LOOP FOR VAV WITH REHEAT DEMAND OUTLET PIPE NODE,NODE 5,Pipe Nodes
 Component Set,59,BRANCH,MAIN SERVICE WATER LOOP SUPPLY INLET BRANCH,PUMP:CONSTANTSPEED,MAIN SERVICE WATER LOOP CIRCULATOR PUMP,MAIN SERVICE WATER LOOP SUPPLY INLET NODE,MAIN SERVICE WATER LOOP CIRCULATOR PUMP OUTLET WATER NODE,Water Nodes
 Component Set,60,BRANCH,MAIN SERVICE WATER LOOP SUPPLY BRANCH 1,WATERHEATER:MIXED,100GAL NATURAL GAS WATER HEATER - 100KBTU/HR 0.808 THERM EFF,100GAL NATURAL GAS WATER HEATER - 100KBTU/HR 0.808 THERM EFF SUPPLY INLET WATER NODE,100GAL NATURAL GAS WATER HEATER - 100KBTU/HR 0.808 THERM EFF SUPPLY OUTLET WATER NODE,Use Side Water Nodes
 Component Set,61,BRANCH,MAIN SERVICE WATER LOOP SUPPLY BRANCH 2,PIPE:ADIABATIC,PIPE ADIABATIC 1,PIPE ADIABATIC 1 INLET WATER NODE,PIPE ADIABATIC 1 OUTLET WATER NODE,Pipe Nodes
 Component Set,62,BRANCH,MAIN SERVICE WATER LOOP SUPPLY OUTLET BRANCH,PIPE:ADIABATIC,PIPE ADIABATIC 3,PIPE ADIABATIC 3 INLET WATER NODE,MAIN SERVICE WATER LOOP SUPPLY OUTLET NODE,Pipe Nodes
 Component Set,63,BRANCH,MAIN SERVICE WATER LOOP DEMAND INLET BRANCH,PIPE:ADIABATIC,MAIN SERVICE WATER LOOP DEMAND INLET PIPE,MAIN SERVICE WATER LOOP DEMAND INLET NODE,MAIN SERVICE WATER LOOP DEMAND INLET PIPE NODE,Pipe Nodes
 Component Set,64,BRANCH,MAIN SERVICE WATER LOOP DEMAND BRANCH 1,PIPE:ADIABATIC,PIPE ADIABATIC 2,PIPE ADIABATIC 2 INLET WATER NODE,PIPE ADIABATIC 2 OUTLET WATER NODE,Pipe Nodes
 Component Set,65,BRANCH,MAIN SERVICE WATER LOOP DEMAND BRANCH 2,WATERUSE:CONNECTIONS,WATER USE CONNECTIONS 1,WATER USE CONNECTIONS 1 INLET WATER NODE,WATER USE CONNECTIONS 1 OUTLET WATER NODE,DHW Nodes
 Component Set,66,BRANCH,MAIN SERVICE WATER LOOP DEMAND BRANCH 3,WATERUSE:CONNECTIONS,WATER USE CONNECTIONS 2,WATER USE CONNECTIONS 2 INLET WATER NODE,WATER USE CONNECTIONS 2 OUTLET WATER NODE,DHW Nodes
 Component Set,67,BRANCH,MAIN SERVICE WATER LOOP DEMAND BRANCH 4,WATERUSE:CONNECTIONS,WATER USE CONNECTIONS 3,WATER USE CONNECTIONS 3 INLET WATER NODE,WATER USE CONNECTIONS 3 OUTLET WATER NODE,DHW Nodes
 Component Set,68,BRANCH,MAIN SERVICE WATER LOOP DEMAND BRANCH 5,WATERUSE:CONNECTIONS,WATER USE CONNECTIONS 4,WATER USE CONNECTIONS 4 INLET WATER NODE,WATER USE CONNECTIONS 4 OUTLET WATER NODE,DHW Nodes
 Component Set,69,BRANCH,MAIN SERVICE WATER LOOP DEMAND BRANCH 6,WATERUSE:CONNECTIONS,WATER USE CONNECTIONS 5,WATER USE CONNECTIONS 5 INLET WATER NODE,WATER USE CONNECTIONS 5 OUTLET WATER NODE,DHW Nodes
 Component Set,70,BRANCH,MAIN SERVICE WATER LOOP DEMAND BRANCH 7,WATERUSE:CONNECTIONS,WATER USE CONNECTIONS 6,WATER USE CONNECTIONS 6 INLET WATER NODE,WATER USE CONNECTIONS 6 OUTLET WATER NODE,DHW Nodes
 Component Set,71,BRANCH,MAIN SERVICE WATER LOOP DEMAND BRANCH 8,WATERUSE:CONNECTIONS,WATER USE CONNECTIONS 7,WATER USE CONNECTIONS 7 INLET WATER NODE,WATER USE CONNECTIONS 7 OUTLET WATER NODE,DHW Nodes
 Component Set,72,BRANCH,MAIN SERVICE WATER LOOP DEMAND BRANCH 9,WATERUSE:CONNECTIONS,WATER USE CONNECTIONS 8,WATER USE CONNECTIONS 8 INLET WATER NODE,WATER USE CONNECTIONS 8 OUTLET WATER NODE,DHW Nodes
 Component Set,73,BRANCH,MAIN SERVICE WATER LOOP DEMAND BRANCH 10,WATERUSE:CONNECTIONS,WATER USE CONNECTIONS 9,WATER USE CONNECTIONS 9 INLET WATER NODE,WATER USE CONNECTIONS 9 OUTLET WATER NODE,DHW Nodes
 Component Set,74,BRANCH,MAIN SERVICE WATER LOOP DEMAND BRANCH 11,WATERUSE:CONNECTIONS,WATER USE CONNECTIONS 10,WATER USE CONNECTIONS 10 INLET WATER NODE,WATER USE CONNECTIONS 10 OUTLET WATER NODE,DHW Nodes
 Component Set,75,BRANCH,MAIN SERVICE WATER LOOP DEMAND BRANCH 12,WATERUSE:CONNECTIONS,WATER USE CONNECTIONS 11,WATER USE CONNECTIONS 11 INLET WATER NODE,WATER USE CONNECTIONS 11 OUTLET WATER NODE,DHW Nodes
 Component Set,76,BRANCH,MAIN SERVICE WATER LOOP DEMAND BRANCH 13,WATERUSE:CONNECTIONS,WATER USE CONNECTIONS 12,WATER USE CONNECTIONS 12 INLET WATER NODE,WATER USE CONNECTIONS 12 OUTLET WATER NODE,DHW Nodes
 Component Set,77,BRANCH,MAIN SERVICE WATER LOOP DEMAND BRANCH 14,WATERUSE:CONNECTIONS,WATER USE CONNECTIONS 13,WATER USE CONNECTIONS 13 INLET WATER NODE,WATER USE CONNECTIONS 13 OUTLET WATER NODE,DHW Nodes
 Component Set,78,BRANCH,MAIN SERVICE WATER LOOP DEMAND BRANCH 15,WATERUSE:CONNECTIONS,WATER USE CONNECTIONS 14,WATER USE CONNECTIONS 14 INLET WATER NODE,WATER USE CONNECTIONS 14 OUTLET WATER NODE,DHW Nodes
 Component Set,79,BRANCH,MAIN SERVICE WATER LOOP DEMAND BRANCH 16,WATERUSE:CONNECTIONS,WATER USE CONNECTIONS 15,WATER USE CONNECTIONS 15 INLET WATER NODE,WATER USE CONNECTIONS 15 OUTLET WATER NODE,DHW Nodes
 Component Set,80,BRANCH,MAIN SERVICE WATER LOOP DEMAND BYPASS BRANCH,PIPE:ADIABATIC,MAIN SERVICE WATER LOOP DEMAND BYPASS PIPE,MAIN SERVICE WATER LOOP DEMAND BYPASS PIPE INLET NODE,MAIN SERVICE WATER LOOP DEMAND BYPASS PIPE OUTLET NODE,Pipe Nodes
 Component Set,81,BRANCH,MAIN SERVICE WATER LOOP DEMAND OUTLET BRANCH,PIPE:ADIABATIC,PIPE ADIABATIC 4,PIPE ADIABATIC 4 INLET WATER NODE,MAIN SERVICE WATER LOOP DEMAND OUTLET NODE,Pipe Nodes
 Component Set,82,ZONEHVAC:AIRDISTRIBUTIONUNIT,ADU AIR TERMINAL SINGLE DUCT VAV REHEAT 6,AIRTERMINAL:SINGLEDUCT:VAV:REHEAT,AIR TERMINAL SINGLE DUCT VAV REHEAT 6,NODE 75,NODE 73,Air Nodes
 Component Set,83,ZONEHVAC:AIRDISTRIBUTIONUNIT,ADU AIR TERMINAL SINGLE DUCT VAV REHEAT 11,AIRTERMINAL:SINGLEDUCT:VAV:REHEAT,AIR TERMINAL SINGLE DUCT VAV REHEAT 11,NODE 113,NODE 111,Air Nodes
 Component Set,84,ZONEHVAC:AIRDISTRIBUTIONUNIT,ADU AIR TERMINAL SINGLE DUCT VAV REHEAT 15,AIRTERMINAL:SINGLEDUCT:VAV:REHEAT,AIR TERMINAL SINGLE DUCT VAV REHEAT 15,NODE 146,NODE 144,Air Nodes
 Component Set,85,ZONEHVAC:AIRDISTRIBUTIONUNIT,ADU AIR TERMINAL SINGLE DUCT VAV REHEAT 1,AIRTERMINAL:SINGLEDUCT:VAV:REHEAT,AIR TERMINAL SINGLE DUCT VAV REHEAT 1,NODE 50,NODE 39,Air Nodes
 Component Set,86,ZONEHVAC:AIRDISTRIBUTIONUNIT,ADU AIR TERMINAL SINGLE DUCT VAV REHEAT 7,AIRTERMINAL:SINGLEDUCT:VAV:REHEAT,AIR TERMINAL SINGLE DUCT VAV REHEAT 7,NODE 93,NODE 80,Air Nodes
 Component Set,87,ZONEHVAC:AIRDISTRIBUTIONUNIT,ADU AIR TERMINAL SINGLE DUCT VAV REHEAT 3,AIRTERMINAL:SINGLEDUCT:VAV:REHEAT,AIR TERMINAL SINGLE DUCT VAV REHEAT 3,NODE 60,NODE 58,Air Nodes
 Component Set,88,ZONEHVAC:AIRDISTRIBUTIONUNIT,ADU AIR TERMINAL SINGLE DUCT VAV REHEAT 2,AIRTERMINAL:SINGLEDUCT:VAV:REHEAT,AIR TERMINAL SINGLE DUCT VAV REHEAT 2,NODE 55,NODE 53,Air Nodes
 Component Set,89,ZONEHVAC:AIRDISTRIBUTIONUNIT,ADU AIR TERMINAL SINGLE DUCT VAV REHEAT 4,AIRTERMINAL:SINGLEDUCT:VAV:REHEAT,AIR TERMINAL SINGLE DUCT VAV REHEAT 4,NODE 65,NODE 63,Air Nodes
 Component Set,90,ZONEHVAC:AIRDISTRIBUTIONUNIT,ADU AIR TERMINAL SINGLE DUCT VAV REHEAT 5,AIRTERMINAL:SINGLEDUCT:VAV:REHEAT,AIR TERMINAL SINGLE DUCT VAV REHEAT 5,NODE 70,NODE 68,Air Nodes
 Component Set,91,ZONEHVAC:AIRDISTRIBUTIONUNIT,ADU AIR TERMINAL SINGLE DUCT VAV REHEAT 10,AIRTERMINAL:SINGLEDUCT:VAV:REHEAT,AIR TERMINAL SINGLE DUCT VAV REHEAT 10,NODE 108,NODE 106,Air Nodes
 Component Set,92,ZONEHVAC:AIRDISTRIBUTIONUNIT,ADU AIR TERMINAL SINGLE DUCT VAV REHEAT 9,AIRTERMINAL:SINGLEDUCT:VAV:REHEAT,AIR TERMINAL SINGLE DUCT VAV REHEAT 9,NODE 103,NODE 101,Air Nodes
 Component Set,93,ZONEHVAC:AIRDISTRIBUTIONUNIT,ADU AIR TERMINAL SINGLE DUCT VAV REHEAT 12,AIRTERMINAL:SINGLEDUCT:VAV:REHEAT,AIR TERMINAL SINGLE DUCT VAV REHEAT 12,NODE 118,NODE 116,Air Nodes
 Component Set,94,ZONEHVAC:AIRDISTRIBUTIONUNIT,ADU AIR TERMINAL SINGLE DUCT VAV REHEAT 8,AIRTERMINAL:SINGLEDUCT:VAV:REHEAT,AIR TERMINAL SINGLE DUCT VAV REHEAT 8,NODE 98,NODE 96,Air Nodes
 Component Set,95,ZONEHVAC:AIRDISTRIBUTIONUNIT,ADU AIR TERMINAL SINGLE DUCT VAV REHEAT 18,AIRTERMINAL:SINGLEDUCT:VAV:REHEAT,AIR TERMINAL SINGLE DUCT VAV REHEAT 18,NODE 161,NODE 159,Air Nodes
 Component Set,96,ZONEHVAC:AIRDISTRIBUTIONUNIT,ADU AIR TERMINAL SINGLE DUCT VAV REHEAT 17,AIRTERMINAL:SINGLEDUCT:VAV:REHEAT,AIR TERMINAL SINGLE DUCT VAV REHEAT 17,NODE 156,NODE 154,Air Nodes
 Component Set,97,ZONEHVAC:AIRDISTRIBUTIONUNIT,ADU AIR TERMINAL SINGLE DUCT VAV REHEAT 16,AIRTERMINAL:SINGLEDUCT:VAV:REHEAT,AIR TERMINAL SINGLE DUCT VAV REHEAT 16,NODE 151,NODE 149,Air Nodes
 Component Set,98,ZONEHVAC:AIRDISTRIBUTIONUNIT,ADU AIR TERMINAL SINGLE DUCT VAV REHEAT 14,AIRTERMINAL:SINGLEDUCT:VAV:REHEAT,AIR TERMINAL SINGLE DUCT VAV REHEAT 14,NODE 141,NODE 139,Air Nodes
 Component Set,99,ZONEHVAC:AIRDISTRIBUTIONUNIT,ADU AIR TERMINAL SINGLE DUCT VAV REHEAT 13,AIRTERMINAL:SINGLEDUCT:VAV:REHEAT,AIR TERMINAL SINGLE DUCT VAV REHEAT 13,NODE 136,NODE 123,Air Nodes
 Component Set,100,AIRTERMINAL:SINGLEDUCT:VAV:REHEAT,AIR TERMINAL SINGLE DUCT VAV REHEAT 6,COIL:HEATING:WATER,COIL HEATING WATER 7,AIR TERMINAL SINGLE DUCT VAV REHEAT 6 DAMPER OUTLET,NODE 73,Air Nodes
 Component Set,101,AIRTERMINAL:SINGLEDUCT:VAV:REHEAT,AIR TERMINAL SINGLE DUCT VAV REHEAT 11,COIL:HEATING:WATER,COIL HEATING WATER 13,AIR TERMINAL SINGLE DUCT VAV REHEAT 11 DAMPER OUTLET,NODE 111,Air Nodes
 Component Set,102,AIRTERMINAL:SINGLEDUCT:VAV:REHEAT,AIR TERMINAL SINGLE DUCT VAV REHEAT 15,COIL:HEATING:WATER,COIL HEATING WATER 18,AIR TERMINAL SINGLE DUCT VAV REHEAT 15 DAMPER OUTLET,NODE 144,Air Nodes
 Component Set,103,AIRTERMINAL:SINGLEDUCT:VAV:REHEAT,AIR TERMINAL SINGLE DUCT VAV REHEAT 1,COIL:HEATING:WATER,COIL HEATING WATER 2,AIR TERMINAL SINGLE DUCT VAV REHEAT 1 DAMPER OUTLET,NODE 39,Air Nodes
 Component Set,104,AIRTERMINAL:SINGLEDUCT:VAV:REHEAT,AIR TERMINAL SINGLE DUCT VAV REHEAT 7,COIL:HEATING:WATER,COIL HEATING WATER 9,AIR TERMINAL SINGLE DUCT VAV REHEAT 7 DAMPER OUTLET,NODE 80,Air Nodes
 Component Set,105,AIRTERMINAL:SINGLEDUCT:VAV:REHEAT,AIR TERMINAL SINGLE DUCT VAV REHEAT 3,COIL:HEATING:WATER,COIL HEATING WATER 4,AIR TERMINAL SINGLE DUCT VAV REHEAT 3 DAMPER OUTLET,NODE 58,Air Nodes
 Component Set,106,AIRTERMINAL:SINGLEDUCT:VAV:REHEAT,AIR TERMINAL SINGLE DUCT VAV REHEAT 2,COIL:HEATING:WATER,COIL HEATING WATER 3,AIR TERMINAL SINGLE DUCT VAV REHEAT 2 DAMPER OUTLET,NODE 53,Air Nodes
 Component Set,107,AIRTERMINAL:SINGLEDUCT:VAV:REHEAT,AIR TERMINAL SINGLE DUCT VAV REHEAT 4,COIL:HEATING:WATER,COIL HEATING WATER 5,AIR TERMINAL SINGLE DUCT VAV REHEAT 4 DAMPER OUTLET,NODE 63,Air Nodes
 Component Set,108,AIRTERMINAL:SINGLEDUCT:VAV:REHEAT,AIR TERMINAL SINGLE DUCT VAV REHEAT 5,COIL:HEATING:WATER,COIL HEATING WATER 6,AIR TERMINAL SINGLE DUCT VAV REHEAT 5 DAMPER OUTLET,NODE 68,Air Nodes
 Component Set,109,AIRTERMINAL:SINGLEDUCT:VAV:REHEAT,AIR TERMINAL SINGLE DUCT VAV REHEAT 10,COIL:HEATING:WATER,COIL HEATING WATER 12,AIR TERMINAL SINGLE DUCT VAV REHEAT 10 DAMPER OUTLET,NODE 106,Air Nodes
 Component Set,110,AIRTERMINAL:SINGLEDUCT:VAV:REHEAT,AIR TERMINAL SINGLE DUCT VAV REHEAT 9,COIL:HEATING:WATER,COIL HEATING WATER 11,AIR TERMINAL SINGLE DUCT VAV REHEAT 9 DAMPER OUTLET,NODE 101,Air Nodes
 Component Set,111,AIRTERMINAL:SINGLEDUCT:VAV:REHEAT,AIR TERMINAL SINGLE DUCT VAV REHEAT 12,COIL:HEATING:WATER,COIL HEATING WATER 14,AIR TERMINAL SINGLE DUCT VAV REHEAT 12 DAMPER OUTLET,NODE 116,Air Nodes
 Component Set,112,AIRTERMINAL:SINGLEDUCT:VAV:REHEAT,AIR TERMINAL SINGLE DUCT VAV REHEAT 8,COIL:HEATING:WATER,COIL HEATING WATER 10,AIR TERMINAL SINGLE DUCT VAV REHEAT 8 DAMPER OUTLET,NODE 96,Air Nodes
 Component Set,113,AIRTERMINAL:SINGLEDUCT:VAV:REHEAT,AIR TERMINAL SINGLE DUCT VAV REHEAT 18,COIL:HEATING:WATER,COIL HEATING WATER 21,AIR TERMINAL SINGLE DUCT VAV REHEAT 18 DAMPER OUTLET,NODE 159,Air Nodes
 Component Set,114,AIRTERMINAL:SINGLEDUCT:VAV:REHEAT,AIR TERMINAL SINGLE DUCT VAV REHEAT 17,COIL:HEATING:WATER,COIL HEATING WATER 20,AIR TERMINAL SINGLE DUCT VAV REHEAT 17 DAMPER OUTLET,NODE 154,Air Nodes
 Component Set,115,AIRTERMINAL:SINGLEDUCT:VAV:REHEAT,AIR TERMINAL SINGLE DUCT VAV REHEAT 16,COIL:HEATING:WATER,COIL HEATING WATER 19,AIR TERMINAL SINGLE DUCT VAV REHEAT 16 DAMPER OUTLET,NODE 149,Air Nodes
 Component Set,116,AIRTERMINAL:SINGLEDUCT:VAV:REHEAT,AIR TERMINAL SINGLE DUCT VAV REHEAT 14,COIL:HEATING:WATER,COIL HEATING WATER 17,AIR TERMINAL SINGLE DUCT VAV REHEAT 14 DAMPER OUTLET,NODE 139,Air Nodes
 Component Set,117,AIRTERMINAL:SINGLEDUCT:VAV:REHEAT,AIR TERMINAL SINGLE DUCT VAV REHEAT 13,COIL:HEATING:WATER,COIL HEATING WATER 16,AIR TERMINAL SINGLE DUCT VAV REHEAT 13 DAMPER OUTLET,NODE 123,Air Nodes
 Component Set,118,AIRLOOPHVAC:OUTDOORAIRSYSTEM,AIR LOOP HVAC OUTDOOR AIR SYSTEM 1,OUTDOORAIR:MIXER,AIR LOOP HVAC OUTDOOR AIR SYSTEM 1 OUTDOOR AIR MIXER,NODE 42,NODE 46,Air Nodes
 Component Set,119,AIRLOOPHVAC:OUTDOORAIRSYSTEM,AIR LOOP HVAC OUTDOOR AIR SYSTEM 2,OUTDOORAIR:MIXER,AIR LOOP HVAC OUTDOOR AIR SYSTEM 2 OUTDOOR AIR MIXER,NODE 85,NODE 89,Air Nodes
 Component Set,120,AIRLOOPHVAC:OUTDOORAIRSYSTEM,AIR LOOP HVAC OUTDOOR AIR SYSTEM 3,OUTDOORAIR:MIXER,AIR LOOP HVAC OUTDOOR AIR SYSTEM 3 OUTDOOR AIR MIXER,NODE 128,NODE 132,Air Nodes
! ===============================================================
! <# Plant Loops>,<Number of Plant Loops>
 #Plant Loops,4
! <Plant Loop>,<Plant Loop Name>,<Loop Type>,<Inlet Node Name>,<Outlet Node Name>,<Branch List>,<Connector List>
! <Plant Loop Connector>,<Connector Type>,<Connector Name>,<Loop Name>,<Loop Type>,<Number of Inlets/Outlets>
! <Plant Loop Connector Branches>,<Connector Node Count>,<Connector Type>,<Connector Name>,<Inlet Branch>,<Outlet Branch>,<Loop Name>,<Loop Type>
! <Plant Loop Connector Nodes>,<Connector Node Count>,<Connector Type>,<Connector Name>,<Inlet Node>,<Outlet Node>,<Loop Name>,<Loop Type>
! <Plant Loop Supply Connection>,<Plant Loop Name>,<Supply Side Outlet Node Name>,<Demand Side Inlet Node Name>
! <Plant Loop Return Connection>,<Plant Loop Name>,<Demand Side Outlet Node Name>,<Supply Side Inlet Node Name>
 Plant Loop,CHILLED WATER LOOP FOR VAV WITH REHEAT,Demand,NODE 15,NODE 16,CHILLED WATER LOOP FOR VAV WITH REHEAT DEMAND BRANCHES,CHILLED WATER LOOP FOR VAV WITH REHEAT DEMAND CONNECTOR LIST
   Plant Loop Connector,Splitter,CHILLED WATER LOOP FOR VAV WITH REHEAT DEMAND SPLITTER,CHILLED WATER LOOP FOR VAV WITH REHEAT,Demand,4
     Plant Loop Connector Branches,1,Splitter,CHILLED WATER LOOP FOR VAV WITH REHEAT DEMAND SPLITTER,CHILLED WATER LOOP FOR VAV WITH REHEAT DEMAND INLET BRANCH,CHILLED WATER LOOP FOR VAV WITH REHEAT DEMAND BRANCH 1,CHILLED WATER LOOP FOR VAV WITH REHEAT,Demand
     Plant Loop Connector Nodes,   1,Splitter,CHILLED WATER LOOP FOR VAV WITH REHEAT DEMAND SPLITTER,CHILLED WATER LOOP FOR VAV WITH REHEAT DEMAND INLET PIPE NODE,NODE 17,CHILLED WATER LOOP FOR VAV WITH REHEAT,Demand
     Plant Loop Connector Branches,2,Splitter,CHILLED WATER LOOP FOR VAV WITH REHEAT DEMAND SPLITTER,CHILLED WATER LOOP FOR VAV WITH REHEAT DEMAND INLET BRANCH,CHILLED WATER LOOP FOR VAV WITH REHEAT DEMAND BRANCH 2,CHILLED WATER LOOP FOR VAV WITH REHEAT,Demand
     Plant Loop Connector Nodes,   2,Splitter,CHILLED WATER LOOP FOR VAV WITH REHEAT DEMAND SPLITTER,CHILLED WATER LOOP FOR VAV WITH REHEAT DEMAND INLET PIPE NODE,NODE 83,CHILLED WATER LOOP FOR VAV WITH REHEAT,Demand
     Plant Loop Connector Branches,3,Splitter,CHILLED WATER LOOP FOR VAV WITH REHEAT DEMAND SPLITTER,CHILLED WATER LOOP FOR VAV WITH REHEAT DEMAND INLET BRANCH,CHILLED WATER LOOP FOR VAV WITH REHEAT DEMAND BRANCH 3,CHILLED WATER LOOP FOR VAV WITH REHEAT,Demand
     Plant Loop Connector Nodes,   3,Splitter,CHILLED WATER LOOP FOR VAV WITH REHEAT DEMAND SPLITTER,CHILLED WATER LOOP FOR VAV WITH REHEAT DEMAND INLET PIPE NODE,NODE 126,CHILLED WATER LOOP FOR VAV WITH REHEAT,Demand
     Plant Loop Connector Branches,4,Splitter,CHILLED WATER LOOP FOR VAV WITH REHEAT DEMAND SPLITTER,CHILLED WATER LOOP FOR VAV WITH REHEAT DEMAND INLET BRANCH,CHILLED WATER LOOP FOR VAV WITH REHEAT DEMAND BYPASS BRANCH,CHILLED WATER LOOP FOR VAV WITH REHEAT,Demand
     Plant Loop Connector Nodes,   4,Splitter,CHILLED WATER LOOP FOR VAV WITH REHEAT DEMAND SPLITTER,CHILLED WATER LOOP FOR VAV WITH REHEAT DEMAND INLET PIPE NODE,CHILLED WATER LOOP FOR VAV WITH REHEAT DEMAND BYPASS PIPE INLET NODE,CHILLED WATER LOOP FOR VAV WITH REHEAT,Demand
   Plant Loop Connector,Mixer,CHILLED WATER LOOP FOR VAV WITH REHEAT DEMAND MIXER,CHILLED WATER LOOP FOR VAV WITH REHEAT,Demand,4
     Plant Loop Connector Branches,1,Mixer,CHILLED WATER LOOP FOR VAV WITH REHEAT DEMAND MIXER,CHILLED WATER LOOP FOR VAV WITH REHEAT DEMAND BRANCH 1,CHILLED WATER LOOP FOR VAV WITH REHEAT DEMAND OUTLET BRANCH,CHILLED WATER LOOP FOR VAV WITH REHEAT,Demand
     Plant Loop Connector Nodes,   1,Mixer,CHILLED WATER LOOP FOR VAV WITH REHEAT DEMAND MIXER,NODE 41,CHILLED WATER LOOP FOR VAV WITH REHEAT DEMAND OUTLET PIPE NODE,CHILLED WATER LOOP FOR VAV WITH REHEAT,Demand
     Plant Loop Connector Branches,2,Mixer,CHILLED WATER LOOP FOR VAV WITH REHEAT DEMAND MIXER,CHILLED WATER LOOP FOR VAV WITH REHEAT DEMAND BRANCH 2,CHILLED WATER LOOP FOR VAV WITH REHEAT DEMAND OUTLET BRANCH,CHILLED WATER LOOP FOR VAV WITH REHEAT,Demand
     Plant Loop Connector Nodes,   2,Mixer,CHILLED WATER LOOP FOR VAV WITH REHEAT DEMAND MIXER,NODE 84,CHILLED WATER LOOP FOR VAV WITH REHEAT DEMAND OUTLET PIPE NODE,CHILLED WATER LOOP FOR VAV WITH REHEAT,Demand
     Plant Loop Connector Branches,3,Mixer,CHILLED WATER LOOP FOR VAV WITH REHEAT DEMAND MIXER,CHILLED WATER LOOP FOR VAV WITH REHEAT DEMAND BRANCH 3,CHILLED WATER LOOP FOR VAV WITH REHEAT DEMAND OUTLET BRANCH,CHILLED WATER LOOP FOR VAV WITH REHEAT,Demand
     Plant Loop Connector Nodes,   3,Mixer,CHILLED WATER LOOP FOR VAV WITH REHEAT DEMAND MIXER,NODE 127,CHILLED WATER LOOP FOR VAV WITH REHEAT DEMAND OUTLET PIPE NODE,CHILLED WATER LOOP FOR VAV WITH REHEAT,Demand
     Plant Loop Connector Branches,4,Mixer,CHILLED WATER LOOP FOR VAV WITH REHEAT DEMAND MIXER,CHILLED WATER LOOP FOR VAV WITH REHEAT DEMAND BYPASS BRANCH,CHILLED WATER LOOP FOR VAV WITH REHEAT DEMAND OUTLET BRANCH,CHILLED WATER LOOP FOR VAV WITH REHEAT,Demand
     Plant Loop Connector Nodes,   4,Mixer,CHILLED WATER LOOP FOR VAV WITH REHEAT DEMAND MIXER,CHILLED WATER LOOP FOR VAV WITH REHEAT DEMAND BYPASS PIPE OUTLET NODE,CHILLED WATER LOOP FOR VAV WITH REHEAT DEMAND OUTLET PIPE NODE,CHILLED WATER LOOP FOR VAV WITH REHEAT,Demand
 Plant Loop,CHILLED WATER LOOP FOR VAV WITH REHEAT,Supply,NODE 12,NODE 13,CHILLED WATER LOOP FOR VAV WITH REHEAT SUPPLY BRANCHES,CHILLED WATER LOOP FOR VAV WITH REHEAT SUPPLY CONNECTOR LIST
   Plant Loop Connector,Splitter,CHILLED WATER LOOP FOR VAV WITH REHEAT SUPPLY SPLITTER,CHILLED WATER LOOP FOR VAV WITH REHEAT,Supply,2
     Plant Loop Connector Branches,1,Splitter,CHILLED WATER LOOP FOR VAV WITH REHEAT SUPPLY SPLITTER,CHILLED WATER LOOP FOR VAV WITH REHEAT SUPPLY INLET BRANCH,CHILLED WATER LOOP FOR VAV WITH REHEAT SUPPLY BRANCH 1,CHILLED WATER LOOP FOR VAV WITH REHEAT,Supply
     Plant Loop Connector Nodes,   1,Splitter,CHILLED WATER LOOP FOR VAV WITH REHEAT SUPPLY SPLITTER,NODE 18,NODE 14,CHILLED WATER LOOP FOR VAV WITH REHEAT,Supply
     Plant Loop Connector Branches,2,Splitter,CHILLED WATER LOOP FOR VAV WITH REHEAT SUPPLY SPLITTER,CHILLED WATER LOOP FOR VAV WITH REHEAT SUPPLY INLET BRANCH,CHILLED WATER LOOP FOR VAV WITH REHEAT SUPPLY BRANCH 2,CHILLED WATER LOOP FOR VAV WITH REHEAT,Supply
     Plant Loop Connector Nodes,   2,Splitter,CHILLED WATER LOOP FOR VAV WITH REHEAT SUPPLY SPLITTER,NODE 18,NODE 20,CHILLED WATER LOOP FOR VAV WITH REHEAT,Supply
   Plant Loop Connector,Mixer,CHILLED WATER LOOP FOR VAV WITH REHEAT SUPPLY MIXER,CHILLED WATER LOOP FOR VAV WITH REHEAT,Supply,2
     Plant Loop Connector Branches,1,Mixer,CHILLED WATER LOOP FOR VAV WITH REHEAT SUPPLY MIXER,CHILLED WATER LOOP FOR VAV WITH REHEAT SUPPLY BRANCH 1,CHILLED WATER LOOP FOR VAV WITH REHEAT SUPPLY OUTLET BRANCH,CHILLED WATER LOOP FOR VAV WITH REHEAT,Supply
     Plant Loop Connector Nodes,   1,Mixer,CHILLED WATER LOOP FOR VAV WITH REHEAT SUPPLY MIXER,NODE 19,NODE 22,CHILLED WATER LOOP FOR VAV WITH REHEAT,Supply
     Plant Loop Connector Branches,2,Mixer,CHILLED WATER LOOP FOR VAV WITH REHEAT SUPPLY MIXER,CHILLED WATER LOOP FOR VAV WITH REHEAT SUPPLY BRANCH 2,CHILLED WATER LOOP FOR VAV WITH REHEAT SUPPLY OUTLET BRANCH,CHILLED WATER LOOP FOR VAV WITH REHEAT,Supply
     Plant Loop Connector Nodes,   2,Mixer,CHILLED WATER LOOP FOR VAV WITH REHEAT SUPPLY MIXER,NODE 21,NODE 22,CHILLED WATER LOOP FOR VAV WITH REHEAT,Supply
 Plant Loop Supply Connection,CHILLED WATER LOOP FOR VAV WITH REHEAT,NODE 13,NODE 15
 Plant Loop Return Connection,CHILLED WATER LOOP FOR VAV WITH REHEAT,NODE 16,NODE 12
 Plant Loop,CONDENSER WATER LOOP FOR VAV WITH REHEAT,Demand,NODE 26,NODE 27,CONDENSER WATER LOOP FOR VAV WITH REHEAT DEMAND BRANCHES,CONDENSER WATER LOOP FOR VAV WITH REHEAT DEMAND CONNECTOR LIST
   Plant Loop Connector,Splitter,CONDENSER WATER LOOP FOR VAV WITH REHEAT DEMAND SPLITTER,CONDENSER WATER LOOP FOR VAV WITH REHEAT,Demand,2
     Plant Loop Connector Branches,1,Splitter,CONDENSER WATER LOOP FOR VAV WITH REHEAT DEMAND SPLITTER,CONDENSER WATER LOOP FOR VAV WITH REHEAT DEMAND INLET BRANCH,CONDENSER WATER LOOP FOR VAV WITH REHEAT DEMAND BRANCH 1,CONDENSER WATER LOOP FOR VAV WITH REHEAT,Demand
     Plant Loop Connector Nodes,   1,Splitter,CONDENSER WATER LOOP FOR VAV WITH REHEAT DEMAND SPLITTER,CONDENSER WATER LOOP FOR VAV WITH REHEAT DEMAND INLET PIPE NODE,NODE 28,CONDENSER WATER LOOP FOR VAV WITH REHEAT,Demand
     Plant Loop Connector Branches,2,Splitter,CONDENSER WATER LOOP FOR VAV WITH REHEAT DEMAND SPLITTER,CONDENSER WATER LOOP FOR VAV WITH REHEAT DEMAND INLET BRANCH,CONDENSER WATER LOOP FOR VAV WITH REHEAT DEMAND BYPASS BRANCH,CONDENSER WATER LOOP FOR VAV WITH REHEAT,Demand
     Plant Loop Connector Nodes,   2,Splitter,CONDENSER WATER LOOP FOR VAV WITH REHEAT DEMAND SPLITTER,CONDENSER WATER LOOP FOR VAV WITH REHEAT DEMAND INLET PIPE NODE,CONDENSER WATER LOOP FOR VAV WITH REHEAT DEMAND BYPASS PIPE INLET NODE,CONDENSER WATER LOOP FOR VAV WITH REHEAT,Demand
   Plant Loop Connector,Mixer,CONDENSER WATER LOOP FOR VAV WITH REHEAT DEMAND MIXER,CONDENSER WATER LOOP FOR VAV WITH REHEAT,Demand,2
     Plant Loop Connector Branches,1,Mixer,CONDENSER WATER LOOP FOR VAV WITH REHEAT DEMAND MIXER,CONDENSER WATER LOOP FOR VAV WITH REHEAT DEMAND BRANCH 1,CONDENSER WATER LOOP FOR VAV WITH REHEAT DEMAND OUTLET BRANCH,CONDENSER WATER LOOP FOR VAV WITH REHEAT,Demand
     Plant Loop Connector Nodes,   1,Mixer,CONDENSER WATER LOOP FOR VAV WITH REHEAT DEMAND MIXER,NODE 34,CONDENSER WATER LOOP FOR VAV WITH REHEAT DEMAND OUTLET PIPE NODE,CONDENSER WATER LOOP FOR VAV WITH REHEAT,Demand
     Plant Loop Connector Branches,2,Mixer,CONDENSER WATER LOOP FOR VAV WITH REHEAT DEMAND MIXER,CONDENSER WATER LOOP FOR VAV WITH REHEAT DEMAND BYPASS BRANCH,CONDENSER WATER LOOP FOR VAV WITH REHEAT DEMAND OUTLET BRANCH,CONDENSER WATER LOOP FOR VAV WITH REHEAT,Demand
     Plant Loop Connector Nodes,   2,Mixer,CONDENSER WATER LOOP FOR VAV WITH REHEAT DEMAND MIXER,CONDENSER WATER LOOP FOR VAV WITH REHEAT DEMAND BYPASS PIPE OUTLET NODE,CONDENSER WATER LOOP FOR VAV WITH REHEAT DEMAND OUTLET PIPE NODE,CONDENSER WATER LOOP FOR VAV WITH REHEAT,Demand
 Plant Loop,CONDENSER WATER LOOP FOR VAV WITH REHEAT,Supply,NODE 23,NODE 24,CONDENSER WATER LOOP FOR VAV WITH REHEAT SUPPLY BRANCHES,CONDENSER WATER LOOP FOR VAV WITH REHEAT SUPPLY CONNECTOR LIST
   Plant Loop Connector,Splitter,CONDENSER WATER LOOP FOR VAV WITH REHEAT SUPPLY SPLITTER,CONDENSER WATER LOOP FOR VAV WITH REHEAT,Supply,2
     Plant Loop Connector Branches,1,Splitter,CONDENSER WATER LOOP FOR VAV WITH REHEAT SUPPLY SPLITTER,CONDENSER WATER LOOP FOR VAV WITH REHEAT SUPPLY INLET BRANCH,CONDENSER WATER LOOP FOR VAV WITH REHEAT SUPPLY BRANCH 1,CONDENSER WATER LOOP FOR VAV WITH REHEAT,Supply
     Plant Loop Connector Nodes,   1,Splitter,CONDENSER WATER LOOP FOR VAV WITH REHEAT SUPPLY SPLITTER,NODE 29,NODE 25,CONDENSER WATER LOOP FOR VAV WITH REHEAT,Supply
     Plant Loop Connector Branches,2,Splitter,CONDENSER WATER LOOP FOR VAV WITH REHEAT SUPPLY SPLITTER,CONDENSER WATER LOOP FOR VAV WITH REHEAT SUPPLY INLET BRANCH,CONDENSER WATER LOOP FOR VAV WITH REHEAT SUPPLY BRANCH 2,CONDENSER WATER LOOP FOR VAV WITH REHEAT,Supply
     Plant Loop Connector Nodes,   2,Splitter,CONDENSER WATER LOOP FOR VAV WITH REHEAT SUPPLY SPLITTER,NODE 29,NODE 31,CONDENSER WATER LOOP FOR VAV WITH REHEAT,Supply
   Plant Loop Connector,Mixer,CONDENSER WATER LOOP FOR VAV WITH REHEAT SUPPLY MIXER,CONDENSER WATER LOOP FOR VAV WITH REHEAT,Supply,2
     Plant Loop Connector Branches,1,Mixer,CONDENSER WATER LOOP FOR VAV WITH REHEAT SUPPLY MIXER,CONDENSER WATER LOOP FOR VAV WITH REHEAT SUPPLY BRANCH 1,CONDENSER WATER LOOP FOR VAV WITH REHEAT SUPPLY OUTLET BRANCH,CONDENSER WATER LOOP FOR VAV WITH REHEAT,Supply
     Plant Loop Connector Nodes,   1,Mixer,CONDENSER WATER LOOP FOR VAV WITH REHEAT SUPPLY MIXER,NODE 30,NODE 33,CONDENSER WATER LOOP FOR VAV WITH REHEAT,Supply
     Plant Loop Connector Branches,2,Mixer,CONDENSER WATER LOOP FOR VAV WITH REHEAT SUPPLY MIXER,CONDENSER WATER LOOP FOR VAV WITH REHEAT SUPPLY BRANCH 2,CONDENSER WATER LOOP FOR VAV WITH REHEAT SUPPLY OUTLET BRANCH,CONDENSER WATER LOOP FOR VAV WITH REHEAT,Supply
     Plant Loop Connector Nodes,   2,Mixer,CONDENSER WATER LOOP FOR VAV WITH REHEAT SUPPLY MIXER,NODE 32,NODE 33,CONDENSER WATER LOOP FOR VAV WITH REHEAT,Supply
 Plant Loop Supply Connection,CONDENSER WATER LOOP FOR VAV WITH REHEAT,NODE 24,NODE 26
 Plant Loop Return Connection,CONDENSER WATER LOOP FOR VAV WITH REHEAT,NODE 27,NODE 23
 Plant Loop,HOT WATER LOOP FOR VAV WITH REHEAT,Demand,NODE 4,NODE 5,HOT WATER LOOP FOR VAV WITH REHEAT DEMAND BRANCHES,HOT WATER LOOP FOR VAV WITH REHEAT DEMAND CONNECTOR LIST
   Plant Loop Connector,Splitter,HOT WATER LOOP FOR VAV WITH REHEAT DEMAND SPLITTER,HOT WATER LOOP FOR VAV WITH REHEAT,Demand,22
     Plant Loop Connector Branches,1,Splitter,HOT WATER LOOP FOR VAV WITH REHEAT DEMAND SPLITTER,HOT WATER LOOP FOR VAV WITH REHEAT DEMAND INLET BRANCH,HOT WATER LOOP FOR VAV WITH REHEAT DEMAND BRANCH 1,HOT WATER LOOP FOR VAV WITH REHEAT,Demand
     Plant Loop Connector Nodes,   1,Splitter,HOT WATER LOOP FOR VAV WITH REHEAT DEMAND SPLITTER,HOT WATER LOOP FOR VAV WITH REHEAT DEMAND INLET PIPE NODE,NODE 6,HOT WATER LOOP FOR VAV WITH REHEAT,Demand
     Plant Loop Connector Branches,2,Splitter,HOT WATER LOOP FOR VAV WITH REHEAT DEMAND SPLITTER,HOT WATER LOOP FOR VAV WITH REHEAT DEMAND INLET BRANCH,HOT WATER LOOP FOR VAV WITH REHEAT DEMAND BRANCH 2,HOT WATER LOOP FOR VAV WITH REHEAT,Demand
     Plant Loop Connector Nodes,   2,Splitter,HOT WATER LOOP FOR VAV WITH REHEAT DEMAND SPLITTER,HOT WATER LOOP FOR VAV WITH REHEAT DEMAND INLET PIPE NODE,NODE 47,HOT WATER LOOP FOR VAV WITH REHEAT,Demand
     Plant Loop Connector Branches,3,Splitter,HOT WATER LOOP FOR VAV WITH REHEAT DEMAND SPLITTER,HOT WATER LOOP FOR VAV WITH REHEAT DEMAND INLET BRANCH,HOT WATER LOOP FOR VAV WITH REHEAT DEMAND BRANCH 3,HOT WATER LOOP FOR VAV WITH REHEAT,Demand
     Plant Loop Connector Nodes,   3,Splitter,HOT WATER LOOP FOR VAV WITH REHEAT DEMAND SPLITTER,HOT WATER LOOP FOR VAV WITH REHEAT DEMAND INLET PIPE NODE,NODE 51,HOT WATER LOOP FOR VAV WITH REHEAT,Demand
     Plant Loop Connector Branches,4,Splitter,HOT WATER LOOP FOR VAV WITH REHEAT DEMAND SPLITTER,HOT WATER LOOP FOR VAV WITH REHEAT DEMAND INLET BRANCH,HOT WATER LOOP FOR VAV WITH REHEAT DEMAND BRANCH 4,HOT WATER LOOP FOR VAV WITH REHEAT,Demand
     Plant Loop Connector Nodes,   4,Splitter,HOT WATER LOOP FOR VAV WITH REHEAT DEMAND SPLITTER,HOT WATER LOOP FOR VAV WITH REHEAT DEMAND INLET PIPE NODE,NODE 56,HOT WATER LOOP FOR VAV WITH REHEAT,Demand
     Plant Loop Connector Branches,5,Splitter,HOT WATER LOOP FOR VAV WITH REHEAT DEMAND SPLITTER,HOT WATER LOOP FOR VAV WITH REHEAT DEMAND INLET BRANCH,HOT WATER LOOP FOR VAV WITH REHEAT DEMAND BRANCH 5,HOT WATER LOOP FOR VAV WITH REHEAT,Demand
     Plant Loop Connector Nodes,   5,Splitter,HOT WATER LOOP FOR VAV WITH REHEAT DEMAND SPLITTER,HOT WATER LOOP FOR VAV WITH REHEAT DEMAND INLET PIPE NODE,NODE 61,HOT WATER LOOP FOR VAV WITH REHEAT,Demand
     Plant Loop Connector Branches,6,Splitter,HOT WATER LOOP FOR VAV WITH REHEAT DEMAND SPLITTER,HOT WATER LOOP FOR VAV WITH REHEAT DEMAND INLET BRANCH,HOT WATER LOOP FOR VAV WITH REHEAT DEMAND BRANCH 6,HOT WATER LOOP FOR VAV WITH REHEAT,Demand
     Plant Loop Connector Nodes,   6,Splitter,HOT WATER LOOP FOR VAV WITH REHEAT DEMAND SPLITTER,HOT WATER LOOP FOR VAV WITH REHEAT DEMAND INLET PIPE NODE,NODE 66,HOT WATER LOOP FOR VAV WITH REHEAT,Demand
     Plant Loop Connector Branches,7,Splitter,HOT WATER LOOP FOR VAV WITH REHEAT DEMAND SPLITTER,HOT WATER LOOP FOR VAV WITH REHEAT DEMAND INLET BRANCH,HOT WATER LOOP FOR VAV WITH REHEAT DEMAND BRANCH 7,HOT WATER LOOP FOR VAV WITH REHEAT,Demand
     Plant Loop Connector Nodes,   7,Splitter,HOT WATER LOOP FOR VAV WITH REHEAT DEMAND SPLITTER,HOT WATER LOOP FOR VAV WITH REHEAT DEMAND INLET PIPE NODE,NODE 71,HOT WATER LOOP FOR VAV WITH REHEAT,Demand
     Plant Loop Connector Branches,8,Splitter,HOT WATER LOOP FOR VAV WITH REHEAT DEMAND SPLITTER,HOT WATER LOOP FOR VAV WITH REHEAT DEMAND INLET BRANCH,HOT WATER LOOP FOR VAV WITH REHEAT DEMAND BRANCH 8,HOT WATER LOOP FOR VAV WITH REHEAT,Demand
     Plant Loop Connector Nodes,   8,Splitter,HOT WATER LOOP FOR VAV WITH REHEAT DEMAND SPLITTER,HOT WATER LOOP FOR VAV WITH REHEAT DEMAND INLET PIPE NODE,NODE 81,HOT WATER LOOP FOR VAV WITH REHEAT,Demand
     Plant Loop Connector Branches,9,Splitter,HOT WATER LOOP FOR VAV WITH REHEAT DEMAND SPLITTER,HOT WATER LOOP FOR VAV WITH REHEAT DEMAND INLET BRANCH,HOT WATER LOOP FOR VAV WITH REHEAT DEMAND BRANCH 9,HOT WATER LOOP FOR VAV WITH REHEAT,Demand
     Plant Loop Connector Nodes,   9,Splitter,HOT WATER LOOP FOR VAV WITH REHEAT DEMAND SPLITTER,HOT WATER LOOP FOR VAV WITH REHEAT DEMAND INLET PIPE NODE,NODE 90,HOT WATER LOOP FOR VAV WITH REHEAT,Demand
     Plant Loop Connector Branches,10,Splitter,HOT WATER LOOP FOR VAV WITH REHEAT DEMAND SPLITTER,HOT WATER LOOP FOR VAV WITH REHEAT DEMAND INLET BRANCH,HOT WATER LOOP FOR VAV WITH REHEAT DEMAND BRANCH 10,HOT WATER LOOP FOR VAV WITH REHEAT,Demand
     Plant Loop Connector Nodes,   10,Splitter,HOT WATER LOOP FOR VAV WITH REHEAT DEMAND SPLITTER,HOT WATER LOOP FOR VAV WITH REHEAT DEMAND INLET PIPE NODE,NODE 94,HOT WATER LOOP FOR VAV WITH REHEAT,Demand
     Plant Loop Connector Branches,11,Splitter,HOT WATER LOOP FOR VAV WITH REHEAT DEMAND SPLITTER,HOT WATER LOOP FOR VAV WITH REHEAT DEMAND INLET BRANCH,HOT WATER LOOP FOR VAV WITH REHEAT DEMAND BRANCH 11,HOT WATER LOOP FOR VAV WITH REHEAT,Demand
     Plant Loop Connector Nodes,   11,Splitter,HOT WATER LOOP FOR VAV WITH REHEAT DEMAND SPLITTER,HOT WATER LOOP FOR VAV WITH REHEAT DEMAND INLET PIPE NODE,NODE 99,HOT WATER LOOP FOR VAV WITH REHEAT,Demand
     Plant Loop Connector Branches,12,Splitter,HOT WATER LOOP FOR VAV WITH REHEAT DEMAND SPLITTER,HOT WATER LOOP FOR VAV WITH REHEAT DEMAND INLET BRANCH,HOT WATER LOOP FOR VAV WITH REHEAT DEMAND BRANCH 12,HOT WATER LOOP FOR VAV WITH REHEAT,Demand
     Plant Loop Connector Nodes,   12,Splitter,HOT WATER LOOP FOR VAV WITH REHEAT DEMAND SPLITTER,HOT WATER LOOP FOR VAV WITH REHEAT DEMAND INLET PIPE NODE,NODE 104,HOT WATER LOOP FOR VAV WITH REHEAT,Demand
     Plant Loop Connector Branches,13,Splitter,HOT WATER LOOP FOR VAV WITH REHEAT DEMAND SPLITTER,HOT WATER LOOP FOR VAV WITH REHEAT DEMAND INLET BRANCH,HOT WATER LOOP FOR VAV WITH REHEAT DEMAND BRANCH 13,HOT WATER LOOP FOR VAV WITH REHEAT,Demand
     Plant Loop Connector Nodes,   13,Splitter,HOT WATER LOOP FOR VAV WITH REHEAT DEMAND SPLITTER,HOT WATER LOOP FOR VAV WITH REHEAT DEMAND INLET PIPE NODE,NODE 109,HOT WATER LOOP FOR VAV WITH REHEAT,Demand
     Plant Loop Connector Branches,14,Splitter,HOT WATER LOOP FOR VAV WITH REHEAT DEMAND SPLITTER,HOT WATER LOOP FOR VAV WITH REHEAT DEMAND INLET BRANCH,HOT WATER LOOP FOR VAV WITH REHEAT DEMAND BRANCH 14,HOT WATER LOOP FOR VAV WITH REHEAT,Demand
     Plant Loop Connector Nodes,   14,Splitter,HOT WATER LOOP FOR VAV WITH REHEAT DEMAND SPLITTER,HOT WATER LOOP FOR VAV WITH REHEAT DEMAND INLET PIPE NODE,NODE 114,HOT WATER LOOP FOR VAV WITH REHEAT,Demand
     Plant Loop Connector Branches,15,Splitter,HOT WATER LOOP FOR VAV WITH REHEAT DEMAND SPLITTER,HOT WATER LOOP FOR VAV WITH REHEAT DEMAND INLET BRANCH,HOT WATER LOOP FOR VAV WITH REHEAT DEMAND BRANCH 15,HOT WATER LOOP FOR VAV WITH REHEAT,Demand
     Plant Loop Connector Nodes,   15,Splitter,HOT WATER LOOP FOR VAV WITH REHEAT DEMAND SPLITTER,HOT WATER LOOP FOR VAV WITH REHEAT DEMAND INLET PIPE NODE,NODE 124,HOT WATER LOOP FOR VAV WITH REHEAT,Demand
     Plant Loop Connector Branches,16,Splitter,HOT WATER LOOP FOR VAV WITH REHEAT DEMAND SPLITTER,HOT WATER LOOP FOR VAV WITH REHEAT DEMAND INLET BRANCH,HOT WATER LOOP FOR VAV WITH REHEAT DEMAND BRANCH 16,HOT WATER LOOP FOR VAV WITH REHEAT,Demand
     Plant Loop Connector Nodes,   16,Splitter,HOT WATER LOOP FOR VAV WITH REHEAT DEMAND SPLITTER,HOT WATER LOOP FOR VAV WITH REHEAT DEMAND INLET PIPE NODE,NODE 133,HOT WATER LOOP FOR VAV WITH REHEAT,Demand
     Plant Loop Connector Branches,17,Splitter,HOT WATER LOOP FOR VAV WITH REHEAT DEMAND SPLITTER,HOT WATER LOOP FOR VAV WITH REHEAT DEMAND INLET BRANCH,HOT WATER LOOP FOR VAV WITH REHEAT DEMAND BRANCH 17,HOT WATER LOOP FOR VAV WITH REHEAT,Demand
     Plant Loop Connector Nodes,   17,Splitter,HOT WATER LOOP FOR VAV WITH REHEAT DEMAND SPLITTER,HOT WATER LOOP FOR VAV WITH REHEAT DEMAND INLET PIPE NODE,NODE 137,HOT WATER LOOP FOR VAV WITH REHEAT,Demand
     Plant Loop Connector Branches,18,Splitter,HOT WATER LOOP FOR VAV WITH REHEAT DEMAND SPLITTER,HOT WATER LOOP FOR VAV WITH REHEAT DEMAND INLET BRANCH,HOT WATER LOOP FOR VAV WITH REHEAT DEMAND BRANCH 18,HOT WATER LOOP FOR VAV WITH REHEAT,Demand
     Plant Loop Connector Nodes,   18,Splitter,HOT WATER LOOP FOR VAV WITH REHEAT DEMAND SPLITTER,HOT WATER LOOP FOR VAV WITH REHEAT DEMAND INLET PIPE NODE,NODE 142,HOT WATER LOOP FOR VAV WITH REHEAT,Demand
     Plant Loop Connector Branches,19,Splitter,HOT WATER LOOP FOR VAV WITH REHEAT DEMAND SPLITTER,HOT WATER LOOP FOR VAV WITH REHEAT DEMAND INLET BRANCH,HOT WATER LOOP FOR VAV WITH REHEAT DEMAND BRANCH 19,HOT WATER LOOP FOR VAV WITH REHEAT,Demand
     Plant Loop Connector Nodes,   19,Splitter,HOT WATER LOOP FOR VAV WITH REHEAT DEMAND SPLITTER,HOT WATER LOOP FOR VAV WITH REHEAT DEMAND INLET PIPE NODE,NODE 147,HOT WATER LOOP FOR VAV WITH REHEAT,Demand
     Plant Loop Connector Branches,20,Splitter,HOT WATER LOOP FOR VAV WITH REHEAT DEMAND SPLITTER,HOT WATER LOOP FOR VAV WITH REHEAT DEMAND INLET BRANCH,HOT WATER LOOP FOR VAV WITH REHEAT DEMAND BRANCH 20,HOT WATER LOOP FOR VAV WITH REHEAT,Demand
     Plant Loop Connector Nodes,   20,Splitter,HOT WATER LOOP FOR VAV WITH REHEAT DEMAND SPLITTER,HOT WATER LOOP FOR VAV WITH REHEAT DEMAND INLET PIPE NODE,NODE 152,HOT WATER LOOP FOR VAV WITH REHEAT,Demand
     Plant Loop Connector Branches,21,Splitter,HOT WATER LOOP FOR VAV WITH REHEAT DEMAND SPLITTER,HOT WATER LOOP FOR VAV WITH REHEAT DEMAND INLET BRANCH,HOT WATER LOOP FOR VAV WITH REHEAT DEMAND BRANCH 21,HOT WATER LOOP FOR VAV WITH REHEAT,Demand
[...]
 Non-Parent Node Connection,NODE 111,COIL:HEATING:WATER,COIL HEATING WATER 13,Outlet,1
 Non-Parent Node Connection,NODE 142,COIL:HEATING:WATER,COIL HEATING WATER 18,Inlet,2
 Non-Parent Node Connection,NODE 143,COIL:HEATING:WATER,COIL HEATING WATER 18,Outlet,2
 Non-Parent Node Connection,AIR TERMINAL SINGLE DUCT VAV REHEAT 15 DAMPER OUTLET,COIL:HEATING:WATER,COIL HEATING WATER 18,Inlet,1
 Non-Parent Node Connection,NODE 144,COIL:HEATING:WATER,COIL HEATING WATER 18,Outlet,1
 Non-Parent Node Connection,NODE 47,COIL:HEATING:WATER,COIL HEATING WATER 2,Inlet,2
 Non-Parent Node Connection,NODE 48,COIL:HEATING:WATER,COIL HEATING WATER 2,Outlet,2
 Non-Parent Node Connection,AIR TERMINAL SINGLE DUCT VAV REHEAT 1 DAMPER OUTLET,COIL:HEATING:WATER,COIL HEATING WATER 2,Inlet,1
 Non-Parent Node Connection,NODE 39,COIL:HEATING:WATER,COIL HEATING WATER 2,Outlet,1
 Non-Parent Node Connection,NODE 90,COIL:HEATING:WATER,COIL HEATING WATER 9,Inlet,2
 Non-Parent Node Connection,NODE 91,COIL:HEATING:WATER,COIL HEATING WATER 9,Outlet,2
 Non-Parent Node Connection,AIR TERMINAL SINGLE DUCT VAV REHEAT 7 DAMPER OUTLET,COIL:HEATING:WATER,COIL HEATING WATER 9,Inlet,1
 Non-Parent Node Connection,NODE 80,COIL:HEATING:WATER,COIL HEATING WATER 9,Outlet,1
 Non-Parent Node Connection,NODE 56,COIL:HEATING:WATER,COIL HEATING WATER 4,Inlet,2
 Non-Parent Node Connection,NODE 57,COIL:HEATING:WATER,COIL HEATING WATER 4,Outlet,2
 Non-Parent Node Connection,AIR TERMINAL SINGLE DUCT VAV REHEAT 3 DAMPER OUTLET,COIL:HEATING:WATER,COIL HEATING WATER 4,Inlet,1
 Non-Parent Node Connection,NODE 58,COIL:HEATING:WATER,COIL HEATING WATER 4,Outlet,1
 Non-Parent Node Connection,NODE 51,COIL:HEATING:WATER,COIL HEATING WATER 3,Inlet,2
 Non-Parent Node Connection,NODE 52,COIL:HEATING:WATER,COIL HEATING WATER 3,Outlet,2
 Non-Parent Node Connection,AIR TERMINAL SINGLE DUCT VAV REHEAT 2 DAMPER OUTLET,COIL:HEATING:WATER,COIL HEATING WATER 3,Inlet,1
 Non-Parent Node Connection,NODE 53,COIL:HEATING:WATER,COIL HEATING WATER 3,Outlet,1
 Non-Parent Node Connection,NODE 61,COIL:HEATING:WATER,COIL HEATING WATER 5,Inlet,2
 Non-Parent Node Connection,NODE 62,COIL:HEATING:WATER,COIL HEATING WATER 5,Outlet,2
 Non-Parent Node Connection,AIR TERMINAL SINGLE DUCT VAV REHEAT 4 DAMPER OUTLET,COIL:HEATING:WATER,COIL HEATING WATER 5,Inlet,1
 Non-Parent Node Connection,NODE 63,COIL:HEATING:WATER,COIL HEATING WATER 5,Outlet,1
 Non-Parent Node Connection,NODE 66,COIL:HEATING:WATER,COIL HEATING WATER 6,Inlet,2
 Non-Parent Node Connection,NODE 67,COIL:HEATING:WATER,COIL HEATING WATER 6,Outlet,2
 Non-Parent Node Connection,AIR TERMINAL SINGLE DUCT VAV REHEAT 5 DAMPER OUTLET,COIL:HEATING:WATER,COIL HEATING WATER 6,Inlet,1
 Non-Parent Node Connection,NODE 68,COIL:HEATING:WATER,COIL HEATING WATER 6,Outlet,1
 Non-Parent Node Connection,NODE 104,COIL:HEATING:WATER,COIL HEATING WATER 12,Inlet,2
 Non-Parent Node Connection,NODE 105,COIL:HEATING:WATER,COIL HEATING WATER 12,Outlet,2
 Non-Parent Node Connection,AIR TERMINAL SINGLE DUCT VAV REHEAT 10 DAMPER OUTLET,COIL:HEATING:WATER,COIL HEATING WATER 12,Inlet,1
 Non-Parent Node Connection,NODE 106,COIL:HEATING:WATER,COIL HEATING WATER 12,Outlet,1
 Non-Parent Node Connection,NODE 99,COIL:HEATING:WATER,COIL HEATING WATER 11,Inlet,2
 Non-Parent Node Connection,NODE 100,COIL:HEATING:WATER,COIL HEATING WATER 11,Outlet,2
 Non-Parent Node Connection,AIR TERMINAL SINGLE DUCT VAV REHEAT 9 DAMPER OUTLET,COIL:HEATING:WATER,COIL HEATING WATER 11,Inlet,1
 Non-Parent Node Connection,NODE 101,COIL:HEATING:WATER,COIL HEATING WATER 11,Outlet,1
 Non-Parent Node Connection,NODE 114,COIL:HEATING:WATER,COIL HEATING WATER 14,Inlet,2
 Non-Parent Node Connection,NODE 115,COIL:HEATING:WATER,COIL HEATING WATER 14,Outlet,2
 Non-Parent Node Connection,AIR TERMINAL SINGLE DUCT VAV REHEAT 12 DAMPER OUTLET,COIL:HEATING:WATER,COIL HEATING WATER 14,Inlet,1
 Non-Parent Node Connection,NODE 116,COIL:HEATING:WATER,COIL HEATING WATER 14,Outlet,1
 Non-Parent Node Connection,NODE 94,COIL:HEATING:WATER,COIL HEATING WATER 10,Inlet,2
 Non-Parent Node Connection,NODE 95,COIL:HEATING:WATER,COIL HEATING WATER 10,Outlet,2
 Non-Parent Node Connection,AIR TERMINAL SINGLE DUCT VAV REHEAT 8 DAMPER OUTLET,COIL:HEATING:WATER,COIL HEATING WATER 10,Inlet,1
 Non-Parent Node Connection,NODE 96,COIL:HEATING:WATER,COIL HEATING WATER 10,Outlet,1
 Non-Parent Node Connection,NODE 157,COIL:HEATING:WATER,COIL HEATING WATER 21,Inlet,2
 Non-Parent Node Connection,NODE 158,COIL:HEATING:WATER,COIL HEATING WATER 21,Outlet,2
 Non-Parent Node Connection,AIR TERMINAL SINGLE DUCT VAV REHEAT 18 DAMPER OUTLET,COIL:HEATING:WATER,COIL HEATING WATER 21,Inlet,1
 Non-Parent Node Connection,NODE 159,COIL:HEATING:WATER,COIL HEATING WATER 21,Outlet,1
 Non-Parent Node Connection,NODE 152,COIL:HEATING:WATER,COIL HEATING WATER 20,Inlet,2
 Non-Parent Node Connection,NODE 153,COIL:HEATING:WATER,COIL HEATING WATER 20,Outlet,2
 Non-Parent Node Connection,AIR TERMINAL SINGLE DUCT VAV REHEAT 17 DAMPER OUTLET,COIL:HEATING:WATER,COIL HEATING WATER 20,Inlet,1
 Non-Parent Node Connection,NODE 154,COIL:HEATING:WATER,COIL HEATING WATER 20,Outlet,1
 Non-Parent Node Connection,NODE 147,COIL:HEATING:WATER,COIL HEATING WATER 19,Inlet,2
 Non-Parent Node Connection,NODE 148,COIL:HEATING:WATER,COIL HEATING WATER 19,Outlet,2
 Non-Parent Node Connection,AIR TERMINAL SINGLE DUCT VAV REHEAT 16 DAMPER OUTLET,COIL:HEATING:WATER,COIL HEATING WATER 19,Inlet,1
 Non-Parent Node Connection,NODE 149,COIL:HEATING:WATER,COIL HEATING WATER 19,Outlet,1
 Non-Parent Node Connection,NODE 137,COIL:HEATING:WATER,COIL HEATING WATER 17,Inlet,2
 Non-Parent Node Connection,NODE 138,COIL:HEATING:WATER,COIL HEATING WATER 17,Outlet,2
 Non-Parent Node Connection,AIR TERMINAL SINGLE DUCT VAV REHEAT 14 DAMPER OUTLET,COIL:HEATING:WATER,COIL HEATING WATER 17,Inlet,1
 Non-Parent Node Connection,NODE 139,COIL:HEATING:WATER,COIL HEATING WATER 17,Outlet,1
 Non-Parent Node Connection,NODE 133,COIL:HEATING:WATER,COIL HEATING WATER 16,Inlet,2
 Non-Parent Node Connection,NODE 134,COIL:HEATING:WATER,COIL HEATING WATER 16,Outlet,2
 Non-Parent Node Connection,AIR TERMINAL SINGLE DUCT VAV REHEAT 13 DAMPER OUTLET,COIL:HEATING:WATER,COIL HEATING WATER 16,Inlet,1
 Non-Parent Node Connection,NODE 123,COIL:HEATING:WATER,COIL HEATING WATER 16,Outlet,1
 Non-Parent Node Connection,NODE 6,COIL:HEATING:WATER,COIL HEATING WATER 1,Inlet,2
 Non-Parent Node Connection,NODE 40,COIL:HEATING:WATER,COIL HEATING WATER 1,Outlet,2
 Non-Parent Node Connection,NODE 45,COIL:HEATING:WATER,COIL HEATING WATER 1,Inlet,1
 Non-Parent Node Connection,NODE 44,COIL:HEATING:WATER,COIL HEATING WATER 1,Outlet,1
 Non-Parent Node Connection,NODE 81,COIL:HEATING:WATER,COIL HEATING WATER 8,Inlet,2
 Non-Parent Node Connection,NODE 82,COIL:HEATING:WATER,COIL HEATING WATER 8,Outlet,2
 Non-Parent Node Connection,NODE 88,COIL:HEATING:WATER,COIL HEATING WATER 8,Inlet,1
 Non-Parent Node Connection,NODE 87,COIL:HEATING:WATER,COIL HEATING WATER 8,Outlet,1
 Non-Parent Node Connection,NODE 124,COIL:HEATING:WATER,COIL HEATING WATER 15,Inlet,2
 Non-Parent Node Connection,NODE 125,COIL:HEATING:WATER,COIL HEATING WATER 15,Outlet,2
 Non-Parent Node Connection,NODE 131,COIL:HEATING:WATER,COIL HEATING WATER 15,Inlet,1
 Non-Parent Node Connection,NODE 130,COIL:HEATING:WATER,COIL HEATING WATER 15,Outlet,1
 Non-Parent Node Connection,NODE 17,COIL:COOLING:WATER,COIL COOLING WATER 1,Inlet,2
 Non-Parent Node Connection,NODE 41,COIL:COOLING:WATER,COIL COOLING WATER 1,Outlet,2
 Non-Parent Node Connection,NODE 46,COIL:COOLING:WATER,COIL COOLING WATER 1,Inlet,1
 Non-Parent Node Connection,NODE 45,COIL:COOLING:WATER,COIL COOLING WATER 1,Outlet,1
 Non-Parent Node Connection,NODE 83,COIL:COOLING:WATER,COIL COOLING WATER 2,Inlet,2
 Non-Parent Node Connection,NODE 84,COIL:COOLING:WATER,COIL COOLING WATER 2,Outlet,2
 Non-Parent Node Connection,NODE 89,COIL:COOLING:WATER,COIL COOLING WATER 2,Inlet,1
 Non-Parent Node Connection,NODE 88,COIL:COOLING:WATER,COIL COOLING WATER 2,Outlet,1
 Non-Parent Node Connection,NODE 126,COIL:COOLING:WATER,COIL COOLING WATER 3,Inlet,2
 Non-Parent Node Connection,NODE 127,COIL:COOLING:WATER,COIL COOLING WATER 3,Outlet,2
 Non-Parent Node Connection,NODE 132,COIL:COOLING:WATER,COIL COOLING WATER 3,Inlet,1
 Non-Parent Node Connection,NODE 131,COIL:COOLING:WATER,COIL COOLING WATER 3,Outlet,1
 Non-Parent Node Connection,AIR TERMINAL SINGLE DUCT VAV REHEAT 11 DAMPER OUTLET,AIRTERMINAL:SINGLEDUCT:VAV:REHEAT,AIR TERMINAL SINGLE DUCT VAV REHEAT 11,Outlet,1
 Non-Parent Node Connection,NODE 113,AIRTERMINAL:SINGLEDUCT:VAV:REHEAT,AIR TERMINAL SINGLE DUCT VAV REHEAT 11,Inlet,1
 Non-Parent Node Connection,AIR TERMINAL SINGLE DUCT VAV REHEAT 15 DAMPER OUTLET,AIRTERMINAL:SINGLEDUCT:VAV:REHEAT,AIR TERMINAL SINGLE DUCT VAV REHEAT 15,Outlet,1
 Non-Parent Node Connection,NODE 146,AIRTERMINAL:SINGLEDUCT:VAV:REHEAT,AIR TERMINAL SINGLE DUCT VAV REHEAT 15,Inlet,1
 Non-Parent Node Connection,AIR TERMINAL SINGLE DUCT VAV REHEAT 1 DAMPER OUTLET,AIRTERMINAL:SINGLEDUCT:VAV:REHEAT,AIR TERMINAL SINGLE DUCT VAV REHEAT 1,Outlet,1
 Non-Parent Node Connection,NODE 50,AIRTERMINAL:SINGLEDUCT:VAV:REHEAT,AIR TERMINAL SINGLE DUCT VAV REHEAT 1,Inlet,1
 Non-Parent Node Connection,AIR TERMINAL SINGLE DUCT VAV REHEAT 7 DAMPER OUTLET,AIRTERMINAL:SINGLEDUCT:VAV:REHEAT,AIR TERMINAL SINGLE DUCT VAV REHEAT 7,Outlet,1
 Non-Parent Node Connection,NODE 93,AIRTERMINAL:SINGLEDUCT:VAV:REHEAT,AIR TERMINAL SINGLE DUCT VAV REHEAT 7,Inlet,1
 Non-Parent Node Connection,AIR TERMINAL SINGLE DUCT VAV REHEAT 3 DAMPER OUTLET,AIRTERMINAL:SINGLEDUCT:VAV:REHEAT,AIR TERMINAL SINGLE DUCT VAV REHEAT 3,Outlet,1
 Non-Parent Node Connection,NODE 60,AIRTERMINAL:SINGLEDUCT:VAV:REHEAT,AIR TERMINAL SINGLE DUCT VAV REHEAT 3,Inlet,1
 Non-Parent Node Connection,AIR TERMINAL SINGLE DUCT VAV REHEAT 2 DAMPER OUTLET,AIRTERMINAL:SINGLEDUCT:VAV:REHEAT,AIR TERMINAL SINGLE DUCT VAV REHEAT 2,Outlet,1
 Non-Parent Node Connection,NODE 55,AIRTERMINAL:SINGLEDUCT:VAV:REHEAT,AIR TERMINAL SINGLE DUCT VAV REHEAT 2,Inlet,1
 Non-Parent Node Connection,AIR TERMINAL SINGLE DUCT VAV REHEAT 4 DAMPER OUTLET,AIRTERMINAL:SINGLEDUCT:VAV:REHEAT,AIR TERMINAL SINGLE DUCT VAV REHEAT 4,Outlet,1
 Non-Parent Node Connection,NODE 65,AIRTERMINAL:SINGLEDUCT:VAV:REHEAT,AIR TERMINAL SINGLE DUCT VAV REHEAT 4,Inlet,1
 Non-Parent Node Connection,AIR TERMINAL SINGLE DUCT VAV REHEAT 5 DAMPER OUTLET,AIRTERMINAL:SINGLEDUCT:VAV:REHEAT,AIR TERMINAL SINGLE DUCT VAV REHEAT 5,Outlet,1
 Non-Parent Node Connection,NODE 70,AIRTERMINAL:SINGLEDUCT:VAV:REHEAT,AIR TERMINAL SINGLE DUCT VAV REHEAT 5,Inlet,1
 Non-Parent Node Connection,AIR TERMINAL SINGLE DUCT VAV REHEAT 10 DAMPER OUTLET,AIRTERMINAL:SINGLEDUCT:VAV:REHEAT,AIR TERMINAL SINGLE DUCT VAV REHEAT 10,Outlet,1
 Non-Parent Node Connection,NODE 108,AIRTERMINAL:SINGLEDUCT:VAV:REHEAT,AIR TERMINAL SINGLE DUCT VAV REHEAT 10,Inlet,1
 Non-Parent Node Connection,AIR TERMINAL SINGLE DUCT VAV REHEAT 9 DAMPER OUTLET,AIRTERMINAL:SINGLEDUCT:VAV:REHEAT,AIR TERMINAL SINGLE DUCT VAV REHEAT 9,Outlet,1
 Non-Parent Node Connection,NODE 103,AIRTERMINAL:SINGLEDUCT:VAV:REHEAT,AIR TERMINAL SINGLE DUCT VAV REHEAT 9,Inlet,1
 Non-Parent Node Connection,AIR TERMINAL SINGLE DUCT VAV REHEAT 12 DAMPER OUTLET,AIRTERMINAL:SINGLEDUCT:VAV:REHEAT,AIR TERMINAL SINGLE DUCT VAV REHEAT 12,Outlet,1
 Non-Parent Node Connection,NODE 118,AIRTERMINAL:SINGLEDUCT:VAV:REHEAT,AIR TERMINAL SINGLE DUCT VAV REHEAT 12,Inlet,1
 Non-Parent Node Connection,AIR TERMINAL SINGLE DUCT VAV REHEAT 8 DAMPER OUTLET,AIRTERMINAL:SINGLEDUCT:VAV:REHEAT,AIR TERMINAL SINGLE DUCT VAV REHEAT 8,Outlet,1
 Non-Parent Node Connection,NODE 98,AIRTERMINAL:SINGLEDUCT:VAV:REHEAT,AIR TERMINAL SINGLE DUCT VAV REHEAT 8,Inlet,1
 Non-Parent Node Connection,AIR TERMINAL SINGLE DUCT VAV REHEAT 18 DAMPER OUTLET,AIRTERMINAL:SINGLEDUCT:VAV:REHEAT,AIR TERMINAL SINGLE DUCT VAV REHEAT 18,Outlet,1
 Non-Parent Node Connection,NODE 161,AIRTERMINAL:SINGLEDUCT:VAV:REHEAT,AIR TERMINAL SINGLE DUCT VAV REHEAT 18,Inlet,1
 Non-Parent Node Connection,AIR TERMINAL SINGLE DUCT VAV REHEAT 17 DAMPER OUTLET,AIRTERMINAL:SINGLEDUCT:VAV:REHEAT,AIR TERMINAL SINGLE DUCT VAV REHEAT 17,Outlet,1
 Non-Parent Node Connection,NODE 156,AIRTERMINAL:SINGLEDUCT:VAV:REHEAT,AIR TERMINAL SINGLE DUCT VAV REHEAT 17,Inlet,1
 Non-Parent Node Connection,AIR TERMINAL SINGLE DUCT VAV REHEAT 16 DAMPER OUTLET,AIRTERMINAL:SINGLEDUCT:VAV:REHEAT,AIR TERMINAL SINGLE DUCT VAV REHEAT 16,Outlet,1
 Non-Parent Node Connection,NODE 151,AIRTERMINAL:SINGLEDUCT:VAV:REHEAT,AIR TERMINAL SINGLE DUCT VAV REHEAT 16,Inlet,1
 Non-Parent Node Connection,AIR TERMINAL SINGLE DUCT VAV REHEAT 14 DAMPER OUTLET,AIRTERMINAL:SINGLEDUCT:VAV:REHEAT,AIR TERMINAL SINGLE DUCT VAV REHEAT 14,Outlet,1
 Non-Parent Node Connection,NODE 141,AIRTERMINAL:SINGLEDUCT:VAV:REHEAT,AIR TERMINAL SINGLE DUCT VAV REHEAT 14,Inlet,1
 Non-Parent Node Connection,AIR TERMINAL SINGLE DUCT VAV REHEAT 13 DAMPER OUTLET,AIRTERMINAL:SINGLEDUCT:VAV:REHEAT,AIR TERMINAL SINGLE DUCT VAV REHEAT 13,Outlet,1
 Non-Parent Node Connection,NODE 136,AIRTERMINAL:SINGLEDUCT:VAV:REHEAT,AIR TERMINAL SINGLE DUCT VAV REHEAT 13,Inlet,1
 Non-Parent Node Connection,NODE 45,CONTROLLER:WATERCOIL,CONTROLLER WATER COIL 2,Sensor,1
 Non-Parent Node Connection,NODE 17,CONTROLLER:WATERCOIL,CONTROLLER WATER COIL 2,Actuator,1
 Non-Parent Node Connection,NODE 44,CONTROLLER:WATERCOIL,CONTROLLER WATER COIL 1,Sensor,1
 Non-Parent Node Connection,NODE 6,CONTROLLER:WATERCOIL,CONTROLLER WATER COIL 1,Actuator,1
 Non-Parent Node Connection,NODE 88,CONTROLLER:WATERCOIL,CONTROLLER WATER COIL 10,Sensor,1
 Non-Parent Node Connection,NODE 83,CONTROLLER:WATERCOIL,CONTROLLER WATER COIL 10,Actuator,1
 Non-Parent Node Connection,NODE 87,CONTROLLER:WATERCOIL,CONTROLLER WATER COIL 9,Sensor,1
 Non-Parent Node Connection,NODE 81,CONTROLLER:WATERCOIL,CONTROLLER WATER COIL 9,Actuator,1
 Non-Parent Node Connection,NODE 131,CONTROLLER:WATERCOIL,CONTROLLER WATER COIL 18,Sensor,1
 Non-Parent Node Connection,NODE 126,CONTROLLER:WATERCOIL,CONTROLLER WATER COIL 18,Actuator,1
 Non-Parent Node Connection,NODE 130,CONTROLLER:WATERCOIL,CONTROLLER WATER COIL 17,Sensor,1
 Non-Parent Node Connection,NODE 124,CONTROLLER:WATERCOIL,CONTROLLER WATER COIL 17,Actuator,1
 Non-Parent Node Connection,NODE 38,AIRLOOPHVAC:ZONEMIXER,AIR LOOP HVAC ZONE MIXER 1,Outlet,1
 Non-Parent Node Connection,NODE 49,AIRLOOPHVAC:ZONEMIXER,AIR LOOP HVAC ZONE MIXER 1,Inlet,1
 Non-Parent Node Connection,NODE 54,AIRLOOPHVAC:ZONEMIXER,AIR LOOP HVAC ZONE MIXER 1,Inlet,1
 Non-Parent Node Connection,NODE 59,AIRLOOPHVAC:ZONEMIXER,AIR LOOP HVAC ZONE MIXER 1,Inlet,1
 Non-Parent Node Connection,NODE 64,AIRLOOPHVAC:ZONEMIXER,AIR LOOP HVAC ZONE MIXER 1,Inlet,1
 Non-Parent Node Connection,NODE 69,AIRLOOPHVAC:ZONEMIXER,AIR LOOP HVAC ZONE MIXER 1,Inlet,1
 Non-Parent Node Connection,NODE 74,AIRLOOPHVAC:ZONEMIXER,AIR LOOP HVAC ZONE MIXER 1,Inlet,1
 Non-Parent Node Connection,NODE 79,AIRLOOPHVAC:ZONEMIXER,AIR LOOP HVAC ZONE MIXER 2,Outlet,1
 Non-Parent Node Connection,NODE 92,AIRLOOPHVAC:ZONEMIXER,AIR LOOP HVAC ZONE MIXER 2,Inlet,1
 Non-Parent Node Connection,NODE 97,AIRLOOPHVAC:ZONEMIXER,AIR LOOP HVAC ZONE MIXER 2,Inlet,1
 Non-Parent Node Connection,NODE 102,AIRLOOPHVAC:ZONEMIXER,AIR LOOP HVAC ZONE MIXER 2,Inlet,1
 Non-Parent Node Connection,NODE 107,AIRLOOPHVAC:ZONEMIXER,AIR LOOP HVAC ZONE MIXER 2,Inlet,1
 Non-Parent Node Connection,NODE 112,AIRLOOPHVAC:ZONEMIXER,AIR LOOP HVAC ZONE MIXER 2,Inlet,1
 Non-Parent Node Connection,NODE 117,AIRLOOPHVAC:ZONEMIXER,AIR LOOP HVAC ZONE MIXER 2,Inlet,1
 Non-Parent Node Connection,NODE 122,AIRLOOPHVAC:ZONEMIXER,AIR LOOP HVAC ZONE MIXER 3,Outlet,1
 Non-Parent Node Connection,NODE 135,AIRLOOPHVAC:ZONEMIXER,AIR LOOP HVAC ZONE MIXER 3,Inlet,1
 Non-Parent Node Connection,NODE 140,AIRLOOPHVAC:ZONEMIXER,AIR LOOP HVAC ZONE MIXER 3,Inlet,1
 Non-Parent Node Connection,NODE 145,AIRLOOPHVAC:ZONEMIXER,AIR LOOP HVAC ZONE MIXER 3,Inlet,1
 Non-Parent Node Connection,NODE 150,AIRLOOPHVAC:ZONEMIXER,AIR LOOP HVAC ZONE MIXER 3,Inlet,1
 Non-Parent Node Connection,NODE 155,AIRLOOPHVAC:ZONEMIXER,AIR LOOP HVAC ZONE MIXER 3,Inlet,1
 Non-Parent Node Connection,NODE 160,AIRLOOPHVAC:ZONEMIXER,AIR LOOP HVAC ZONE MIXER 3,Inlet,1
 Non-Parent Node Connection,NODE 46,OUTDOORAIR:MIXER,AIR LOOP HVAC OUTDOOR AIR SYSTEM 1 OUTDOOR AIR MIXER,Outlet,1
 Non-Parent Node Connection,NODE 42,OUTDOORAIR:MIXER,AIR LOOP HVAC OUTDOOR AIR SYSTEM 1 OUTDOOR AIR MIXER,Inlet,1
 Non-Parent Node Connection,NODE 43,OUTDOORAIR:MIXER,AIR LOOP HVAC OUTDOOR AIR SYSTEM 1 OUTDOOR AIR MIXER,ReliefAir,1
 Non-Parent Node Connection,NODE 35,OUTDOORAIR:MIXER,AIR LOOP HVAC OUTDOOR AIR SYSTEM 1 OUTDOOR AIR MIXER,Inlet,1
 Non-Parent Node Connection,NODE 89,OUTDOORAIR:MIXER,AIR LOOP HVAC OUTDOOR AIR SYSTEM 2 OUTDOOR AIR MIXER,Outlet,1
 Non-Parent Node Connection,NODE 85,OUTDOORAIR:MIXER,AIR LOOP HVAC OUTDOOR AIR SYSTEM 2 OUTDOOR AIR MIXER,Inlet,1
 Non-Parent Node Connection,NODE 86,OUTDOORAIR:MIXER,AIR LOOP HVAC OUTDOOR AIR SYSTEM 2 OUTDOOR AIR MIXER,ReliefAir,1
 Non-Parent Node Connection,NODE 76,OUTDOORAIR:MIXER,AIR LOOP HVAC OUTDOOR AIR SYSTEM 2 OUTDOOR AIR MIXER,Inlet,1
 Non-Parent Node Connection,NODE 132,OUTDOORAIR:MIXER,AIR LOOP HVAC OUTDOOR AIR SYSTEM 3 OUTDOOR AIR MIXER,Outlet,1
 Non-Parent Node Connection,NODE 128,OUTDOORAIR:MIXER,AIR LOOP HVAC OUTDOOR AIR SYSTEM 3 OUTDOOR AIR MIXER,Inlet,1
 Non-Parent Node Connection,NODE 129,OUTDOORAIR:MIXER,AIR LOOP HVAC OUTDOOR AIR SYSTEM 3 OUTDOOR AIR MIXER,ReliefAir,1
 Non-Parent Node Connection,NODE 119,OUTDOORAIR:MIXER,AIR LOOP HVAC OUTDOOR AIR SYSTEM 3 OUTDOOR AIR MIXER,Inlet,1
 Non-Parent Node Connection,NODE 44,FAN:VARIABLEVOLUME,FAN VARIABLE VOLUME 1,Inlet,1
 Non-Parent Node Connection,NODE 36,FAN:VARIABLEVOLUME,FAN VARIABLE VOLUME 1,Outlet,1
 Non-Parent Node Connection,NODE 87,FAN:VARIABLEVOLUME,FAN VARIABLE VOLUME 2,Inlet,1
 Non-Parent Node Connection,NODE 77,FAN:VARIABLEVOLUME,FAN VARIABLE VOLUME 2,Outlet,1
 Non-Parent Node Connection,NODE 130,FAN:VARIABLEVOLUME,FAN VARIABLE VOLUME 3,Inlet,1
 Non-Parent Node Connection,NODE 120,FAN:VARIABLEVOLUME,FAN VARIABLE VOLUME 3,Outlet,1
 Non-Parent Node Connection,NODE 46,CONTROLLER:OUTDOORAIR,CONTROLLER OUTDOOR AIR 1,Sensor,1
 Non-Parent Node Connection,NODE 42,CONTROLLER:OUTDOORAIR,CONTROLLER OUTDOOR AIR 1,Actuator,1
 Non-Parent Node Connection,NODE 43,CONTROLLER:OUTDOORAIR,CONTROLLER OUTDOOR AIR 1,Actuator,1
 Non-Parent Node Connection,NODE 35,CONTROLLER:OUTDOORAIR,CONTROLLER OUTDOOR AIR 1,Sensor,1
 Non-Parent Node Connection,NODE 89,CONTROLLER:OUTDOORAIR,CONTROLLER OUTDOOR AIR 2,Sensor,1
 Non-Parent Node Connection,NODE 85,CONTROLLER:OUTDOORAIR,CONTROLLER OUTDOOR AIR 2,Actuator,1
 Non-Parent Node Connection,NODE 86,CONTROLLER:OUTDOORAIR,CONTROLLER OUTDOOR AIR 2,Actuator,1
 Non-Parent Node Connection,NODE 76,CONTROLLER:OUTDOORAIR,CONTROLLER OUTDOOR AIR 2,Sensor,1
 Non-Parent Node Connection,NODE 132,CONTROLLER:OUTDOORAIR,CONTROLLER OUTDOOR AIR 3,Sensor,1
 Non-Parent Node Connection,NODE 128,CONTROLLER:OUTDOORAIR,CONTROLLER OUTDOOR AIR 3,Actuator,1
 Non-Parent Node Connection,NODE 129,CONTROLLER:OUTDOORAIR,CONTROLLER OUTDOOR AIR 3,Actuator,1
 Non-Parent Node Connection,NODE 119,CONTROLLER:OUTDOORAIR,CONTROLLER OUTDOOR AIR 3,Sensor,1
 Non-Parent Node Connection,NODE 12,PUMP:VARIABLESPEED,PUMP VARIABLE SPEED 2,Inlet,1
 Non-Parent Node Connection,NODE 18,PUMP:VARIABLESPEED,PUMP VARIABLE SPEED 2,Outlet,1
 Non-Parent Node Connection,NODE 23,PUMP:VARIABLESPEED,PUMP VARIABLE SPEED 3,Inlet,1
 Non-Parent Node Connection,NODE 29,PUMP:VARIABLESPEED,PUMP VARIABLE SPEED 3,Outlet,1
 Non-Parent Node Connection,NODE 1,PUMP:VARIABLESPEED,PUMP VARIABLE SPEED 1,Inlet,1
 Non-Parent Node Connection,NODE 7,PUMP:VARIABLESPEED,PUMP VARIABLE SPEED 1,Outlet,1
 Non-Parent Node Connection,MAIN SERVICE WATER LOOP SUPPLY INLET NODE,PUMP:CONSTANTSPEED,MAIN SERVICE WATER LOOP CIRCULATOR PUMP,Inlet,1
 Non-Parent Node Connection,MAIN SERVICE WATER LOOP CIRCULATOR PUMP OUTLET WATER NODE,PUMP:CONSTANTSPEED,MAIN SERVICE WATER LOOP CIRCULATOR PUMP,Outlet,1
